
simpleFoam has been superseded and replaced by the more general
incompressibleFluid solver module executed by the foamRun application:

    foamRun -solver incompressibleFluid

/*---------------------------------------------------------------------------*\
  =========                 |
  \\      /  F ield         | OpenFOAM: The Open Source CFD Toolbox
   \\    /   O peration     | Website:  https://openfoam.org
    \\  /    A nd           | Version:  12
     \\/     M anipulation  |
\*---------------------------------------------------------------------------*/
Build  : 12-86e126a7bc4d
Exec   : foamRun -solver incompressibleFluid
Date   : Apr 03 2025
Time   : 22:07:45
Host   : "RajaBabu"
PID    : 8651
I/O    : uncollated
Case   : /mnt/c/Users/rajab/Documents/workspace/PINN_TurbulentChannelFlow/channelKEpsilon
nProcs : 1
sigFpe : Enabling floating point exception trapping (FOAM_SIGFPE).
fileModificationChecking : Monitoring run-time modified files using timeStampMaster (fileModificationSkew 10)
allowSystemOperations : Allowing user-supplied system call operations

// * * * * * * * * * * * * * * * * * * * * * * * * * * * * * * * * * * * * * //
Create time

Create mesh for time = 0

Selecting solver incompressibleFluid
Selecting viscosity model Newtonian
Selecting turbulence model type RAS
Selecting RAS turbulence model kEpsilon
RAS
{
    RASModel        kEpsilon;
    turbulence      on;
    printCoeffs     on;
    Cmu             0.09;
    C1              1.44;
    C2              1.92;
    sigmak          1;
    sigmaEps        1.3;
    C3              0;
}

No MRF models present


PIMPLE: Convergence criteria found
        U: tolerance 1e-05
        p: tolerance 1e-05
        "(k|epsilon)": tolerance 1e-06


PIMPLE: Operating solver in steady-state mode with 1 outer corrector
PIMPLE: Operating solver in SIMPLE mode



Starting time loop

Reading set description:
    midLine_y

Time = 1s

smoothSolver:  Solving for Ux, Initial residual = 1, Final residual = 0.0757207, No Iterations 3
smoothSolver:  Solving for Uy, Initial residual = 0.999981, Final residual = 0.0901731, No Iterations 3
GAMG:  Solving for p, Initial residual = 1, Final residual = 0.0331323, No Iterations 6
time step continuity errors : sum local = 7.43568e-06, global = 8.97971e-09, cumulative = 8.97971e-09
smoothSolver:  Solving for epsilon, Initial residual = 0.0858315, Final residual = 0.00580948, No Iterations 2
smoothSolver:  Solving for k, Initial residual = 1, Final residual = 0.0676686, No Iterations 2
ExecutionTime = 0.25618 s  ClockTime = 0 s

Time = 2s

smoothSolver:  Solving for Ux, Initial residual = 0.243374, Final residual = 0.0164716, No Iterations 2
smoothSolver:  Solving for Uy, Initial residual = 0.568304, Final residual = 0.0544664, No Iterations 2
GAMG:  Solving for p, Initial residual = 0.292972, Final residual = 0.0128645, No Iterations 4
time step continuity errors : sum local = 0.000202436, global = -3.7032e-06, cumulative = -3.69422e-06
smoothSolver:  Solving for epsilon, Initial residual = 0.026659, Final residual = 0.00117194, No Iterations 2
smoothSolver:  Solving for k, Initial residual = 0.624988, Final residual = 0.0281183, No Iterations 2
ExecutionTime = 0.272762 s  ClockTime = 0 s

Time = 3s

smoothSolver:  Solving for Ux, Initial residual = 0.0964623, Final residual = 0.00734951, No Iterations 2
smoothSolver:  Solving for Uy, Initial residual = 0.413617, Final residual = 0.0160458, No Iterations 3
GAMG:  Solving for p, Initial residual = 0.181453, Final residual = 0.00518992, No Iterations 4
time step continuity errors : sum local = 0.000277028, global = -6.01583e-06, cumulative = -9.71006e-06
smoothSolver:  Solving for epsilon, Initial residual = 0.0266747, Final residual = 0.000728593, No Iterations 2
smoothSolver:  Solving for k, Initial residual = 0.143692, Final residual = 0.00851784, No Iterations 2
ExecutionTime = 0.291422 s  ClockTime = 0 s

Time = 4s

smoothSolver:  Solving for Ux, Initial residual = 0.0737046, Final residual = 0.00572943, No Iterations 2
smoothSolver:  Solving for Uy, Initial residual = 0.284398, Final residual = 0.0260913, No Iterations 2
GAMG:  Solving for p, Initial residual = 0.151215, Final residual = 0.00461709, No Iterations 3
time step continuity errors : sum local = 0.000344349, global = 1.11791e-05, cumulative = 1.46909e-06
smoothSolver:  Solving for epsilon, Initial residual = 0.0189612, Final residual = 0.000711422, No Iterations 2
smoothSolver:  Solving for k, Initial residual = 0.0862902, Final residual = 0.00622455, No Iterations 2
ExecutionTime = 0.308689 s  ClockTime = 0 s

Time = 5s

smoothSolver:  Solving for Ux, Initial residual = 0.0486079, Final residual = 0.0037329, No Iterations 2
smoothSolver:  Solving for Uy, Initial residual = 0.200429, Final residual = 0.0168078, No Iterations 2
GAMG:  Solving for p, Initial residual = 0.146111, Final residual = 0.002435, No Iterations 4
time step continuity errors : sum local = 0.000172834, global = 4.53129e-06, cumulative = 6.00038e-06
smoothSolver:  Solving for epsilon, Initial residual = 0.0135727, Final residual = 0.000815592, No Iterations 2
smoothSolver:  Solving for k, Initial residual = 0.0886907, Final residual = 0.00630049, No Iterations 2
ExecutionTime = 0.326677 s  ClockTime = 0 s

Time = 6s

smoothSolver:  Solving for Ux, Initial residual = 0.0257641, Final residual = 0.00188893, No Iterations 2
smoothSolver:  Solving for Uy, Initial residual = 0.124977, Final residual = 0.00931639, No Iterations 2
GAMG:  Solving for p, Initial residual = 0.193845, Final residual = 0.00473739, No Iterations 4
time step continuity errors : sum local = 0.000193322, global = 5.48231e-06, cumulative = 1.14827e-05
smoothSolver:  Solving for epsilon, Initial residual = 0.0180266, Final residual = 0.000901755, No Iterations 2
smoothSolver:  Solving for k, Initial residual = 0.103023, Final residual = 0.00688192, No Iterations 2
ExecutionTime = 0.344019 s  ClockTime = 0 s

Time = 7s

smoothSolver:  Solving for Ux, Initial residual = 0.0137636, Final residual = 0.00108406, No Iterations 2
smoothSolver:  Solving for Uy, Initial residual = 0.087658, Final residual = 0.00626091, No Iterations 2
GAMG:  Solving for p, Initial residual = 0.433433, Final residual = 0.0173276, No Iterations 3
time step continuity errors : sum local = 0.000284006, global = 6.43051e-06, cumulative = 1.79132e-05
smoothSolver:  Solving for epsilon, Initial residual = 0.0205031, Final residual = 0.000913046, No Iterations 2
smoothSolver:  Solving for k, Initial residual = 0.121288, Final residual = 0.00782508, No Iterations 2
ExecutionTime = 0.359762 s  ClockTime = 0 s

Time = 8s

smoothSolver:  Solving for Ux, Initial residual = 0.0113339, Final residual = 0.000976244, No Iterations 2
smoothSolver:  Solving for Uy, Initial residual = 0.09484, Final residual = 0.00702428, No Iterations 2
GAMG:  Solving for p, Initial residual = 0.316311, Final residual = 0.00887311, No Iterations 4
time step continuity errors : sum local = 0.000175807, global = -7.51977e-06, cumulative = 1.03934e-05
smoothSolver:  Solving for epsilon, Initial residual = 0.0191313, Final residual = 0.000790914, No Iterations 2
smoothSolver:  Solving for k, Initial residual = 0.115459, Final residual = 0.00717047, No Iterations 2
ExecutionTime = 0.37745 s  ClockTime = 1 s

Time = 9s

smoothSolver:  Solving for Ux, Initial residual = 0.00855031, Final residual = 0.000775202, No Iterations 2
smoothSolver:  Solving for Uy, Initial residual = 0.103912, Final residual = 0.00741871, No Iterations 2
GAMG:  Solving for p, Initial residual = 0.391583, Final residual = 0.00696746, No Iterations 4
time step continuity errors : sum local = 9.38359e-05, global = -2.27457e-06, cumulative = 8.11887e-06
smoothSolver:  Solving for epsilon, Initial residual = 0.0164592, Final residual = 0.000669539, No Iterations 2
smoothSolver:  Solving for k, Initial residual = 0.094762, Final residual = 0.00589932, No Iterations 2
ExecutionTime = 0.39422 s  ClockTime = 1 s

Time = 10s

smoothSolver:  Solving for Ux, Initial residual = 0.0121069, Final residual = 0.000948564, No Iterations 2
smoothSolver:  Solving for Uy, Initial residual = 0.0982339, Final residual = 0.00679625, No Iterations 2
GAMG:  Solving for p, Initial residual = 0.189382, Final residual = 0.00847816, No Iterations 3
time step continuity errors : sum local = 0.000248323, global = -9.65133e-06, cumulative = -1.53246e-06
smoothSolver:  Solving for epsilon, Initial residual = 0.0137606, Final residual = 0.000564107, No Iterations 2
smoothSolver:  Solving for k, Initial residual = 0.0751788, Final residual = 0.00466627, No Iterations 2
ExecutionTime = 0.411788 s  ClockTime = 1 s

Time = 11s

smoothSolver:  Solving for Ux, Initial residual = 0.0138007, Final residual = 0.00105811, No Iterations 2
smoothSolver:  Solving for Uy, Initial residual = 0.0855729, Final residual = 0.00617329, No Iterations 2
GAMG:  Solving for p, Initial residual = 0.167273, Final residual = 0.00570028, No Iterations 3
time step continuity errors : sum local = 0.000199106, global = -1.72873e-07, cumulative = -1.70533e-06
smoothSolver:  Solving for epsilon, Initial residual = 0.0114032, Final residual = 0.00045772, No Iterations 2
smoothSolver:  Solving for k, Initial residual = 0.0592687, Final residual = 0.00369327, No Iterations 2
ExecutionTime = 0.427716 s  ClockTime = 1 s

Time = 12s

smoothSolver:  Solving for Ux, Initial residual = 0.0129631, Final residual = 0.000985244, No Iterations 2
smoothSolver:  Solving for Uy, Initial residual = 0.0718349, Final residual = 0.00521188, No Iterations 2
GAMG:  Solving for p, Initial residual = 0.154063, Final residual = 0.00422366, No Iterations 4
time step continuity errors : sum local = 0.000144605, global = 3.24354e-06, cumulative = 1.53821e-06
smoothSolver:  Solving for epsilon, Initial residual = 0.00940979, Final residual = 0.000391501, No Iterations 2
smoothSolver:  Solving for k, Initial residual = 0.0482852, Final residual = 0.00303229, No Iterations 2
ExecutionTime = 0.445896 s  ClockTime = 1 s

Time = 13s

smoothSolver:  Solving for Ux, Initial residual = 0.00994226, Final residual = 0.000792618, No Iterations 2
smoothSolver:  Solving for Uy, Initial residual = 0.0608925, Final residual = 0.00411259, No Iterations 2
GAMG:  Solving for p, Initial residual = 0.170119, Final residual = 0.00322419, No Iterations 4
time step continuity errors : sum local = 8.0275e-05, global = 3.11051e-06, cumulative = 4.64872e-06
smoothSolver:  Solving for epsilon, Initial residual = 0.00779259, Final residual = 0.000335687, No Iterations 2
smoothSolver:  Solving for k, Initial residual = 0.0407549, Final residual = 0.00258029, No Iterations 2
ExecutionTime = 0.464066 s  ClockTime = 1 s

Time = 14s

smoothSolver:  Solving for Ux, Initial residual = 0.00686884, Final residual = 0.000592028, No Iterations 2
smoothSolver:  Solving for Uy, Initial residual = 0.054669, Final residual = 0.00377378, No Iterations 2
GAMG:  Solving for p, Initial residual = 0.228951, Final residual = 0.00708235, No Iterations 3
time step continuity errors : sum local = 0.000112285, global = 1.92334e-06, cumulative = 6.57206e-06
smoothSolver:  Solving for epsilon, Initial residual = 0.00657206, Final residual = 0.000293567, No Iterations 2
smoothSolver:  Solving for k, Initial residual = 0.0348908, Final residual = 0.00224518, No Iterations 2
ExecutionTime = 0.480151 s  ClockTime = 1 s

Time = 15s

smoothSolver:  Solving for Ux, Initial residual = 0.00532004, Final residual = 0.000484877, No Iterations 2
smoothSolver:  Solving for Uy, Initial residual = 0.0520583, Final residual = 0.00365335, No Iterations 2
GAMG:  Solving for p, Initial residual = 0.261376, Final residual = 0.00829414, No Iterations 3
time step continuity errors : sum local = 0.000104567, global = -4.89075e-06, cumulative = 1.68131e-06
smoothSolver:  Solving for epsilon, Initial residual = 0.00559495, Final residual = 0.000260801, No Iterations 2
smoothSolver:  Solving for k, Initial residual = 0.0305458, Final residual = 0.00199205, No Iterations 2
ExecutionTime = 0.495753 s  ClockTime = 1 s

Time = 16s

smoothSolver:  Solving for Ux, Initial residual = 0.00532552, Final residual = 0.000468997, No Iterations 2
smoothSolver:  Solving for Uy, Initial residual = 0.0501659, Final residual = 0.00340386, No Iterations 2
GAMG:  Solving for p, Initial residual = 0.207343, Final residual = 0.00476593, No Iterations 4
time step continuity errors : sum local = 7.0232e-05, global = -2.43137e-06, cumulative = -7.50056e-07
smoothSolver:  Solving for epsilon, Initial residual = 0.00486813, Final residual = 0.000232942, No Iterations 2
smoothSolver:  Solving for k, Initial residual = 0.0270674, Final residual = 0.00176309, No Iterations 2
ExecutionTime = 0.513049 s  ClockTime = 1 s

Time = 17s

smoothSolver:  Solving for Ux, Initial residual = 0.00651148, Final residual = 0.000536771, No Iterations 2
smoothSolver:  Solving for Uy, Initial residual = 0.0484371, Final residual = 0.00310666, No Iterations 2
GAMG:  Solving for p, Initial residual = 0.167256, Final residual = 0.00578628, No Iterations 3
time step continuity errors : sum local = 0.000108631, global = 1.49067e-07, cumulative = -6.00989e-07
smoothSolver:  Solving for epsilon, Initial residual = 0.0042746, Final residual = 0.000210988, No Iterations 2
smoothSolver:  Solving for k, Initial residual = 0.0243413, Final residual = 0.00159856, No Iterations 2
ExecutionTime = 0.53123 s  ClockTime = 1 s

Time = 18s

smoothSolver:  Solving for Ux, Initial residual = 0.00710746, Final residual = 0.000575618, No Iterations 2
smoothSolver:  Solving for Uy, Initial residual = 0.0421257, Final residual = 0.00272265, No Iterations 2
GAMG:  Solving for p, Initial residual = 0.135025, Final residual = 0.00447854, No Iterations 3
time step continuity errors : sum local = 0.000108721, global = -6.36058e-07, cumulative = -1.23705e-06
smoothSolver:  Solving for epsilon, Initial residual = 0.00383557, Final residual = 0.000192378, No Iterations 2
smoothSolver:  Solving for k, Initial residual = 0.0221083, Final residual = 0.00148138, No Iterations 2
ExecutionTime = 0.549252 s  ClockTime = 1 s

Time = 19s

smoothSolver:  Solving for Ux, Initial residual = 0.00708569, Final residual = 0.000556057, No Iterations 2
smoothSolver:  Solving for Uy, Initial residual = 0.0396727, Final residual = 0.00247619, No Iterations 2
GAMG:  Solving for p, Initial residual = 0.135218, Final residual = 0.00380773, No Iterations 3
time step continuity errors : sum local = 8.70242e-05, global = 3.533e-06, cumulative = 2.29595e-06
smoothSolver:  Solving for epsilon, Initial residual = 0.00349664, Final residual = 0.000180181, No Iterations 2
smoothSolver:  Solving for k, Initial residual = 0.0201323, Final residual = 0.00135449, No Iterations 2
ExecutionTime = 0.566726 s  ClockTime = 1 s

Time = 20s

smoothSolver:  Solving for Ux, Initial residual = 0.00634929, Final residual = 0.000505315, No Iterations 2
smoothSolver:  Solving for Uy, Initial residual = 0.0376026, Final residual = 0.00232962, No Iterations 2
GAMG:  Solving for p, Initial residual = 0.141419, Final residual = 0.00653506, No Iterations 3
time step continuity errors : sum local = 0.000131448, global = 1.20173e-06, cumulative = 3.49769e-06
smoothSolver:  Solving for epsilon, Initial residual = 0.00320402, Final residual = 0.000169814, No Iterations 2
smoothSolver:  Solving for k, Initial residual = 0.0185836, Final residual = 0.00124529, No Iterations 2
ExecutionTime = 0.58406 s  ClockTime = 1 s

Time = 21s

smoothSolver:  Solving for Ux, Initial residual = 0.00534166, Final residual = 0.000436333, No Iterations 2
smoothSolver:  Solving for Uy, Initial residual = 0.0352125, Final residual = 0.00215406, No Iterations 2
GAMG:  Solving for p, Initial residual = 0.15076, Final residual = 0.00413921, No Iterations 3
time step continuity errors : sum local = 7.02911e-05, global = 1.96832e-07, cumulative = 3.69452e-06
smoothSolver:  Solving for epsilon, Initial residual = 0.00295596, Final residual = 0.000159191, No Iterations 2
smoothSolver:  Solving for k, Initial residual = 0.0173311, Final residual = 0.00118272, No Iterations 2
ExecutionTime = 0.600999 s  ClockTime = 1 s

Time = 22s

smoothSolver:  Solving for Ux, Initial residual = 0.00459004, Final residual = 0.000388848, No Iterations 2
smoothSolver:  Solving for Uy, Initial residual = 0.0317446, Final residual = 0.00195081, No Iterations 2
GAMG:  Solving for p, Initial residual = 0.164374, Final residual = 0.00557065, No Iterations 3
time step continuity errors : sum local = 8.00653e-05, global = -1.92748e-06, cumulative = 1.76704e-06
smoothSolver:  Solving for epsilon, Initial residual = 0.0027472, Final residual = 0.000150437, No Iterations 2
smoothSolver:  Solving for k, Initial residual = 0.0160842, Final residual = 0.00110175, No Iterations 2
ExecutionTime = 0.618975 s  ClockTime = 1 s

Time = 23s

smoothSolver:  Solving for Ux, Initial residual = 0.00433226, Final residual = 0.00036907, No Iterations 2
smoothSolver:  Solving for Uy, Initial residual = 0.0303111, Final residual = 0.00184011, No Iterations 2
GAMG:  Solving for p, Initial residual = 0.163317, Final residual = 0.00445459, No Iterations 3
time step continuity errors : sum local = 6.09326e-05, global = -1.64462e-06, cumulative = 1.22417e-07
smoothSolver:  Solving for epsilon, Initial residual = 0.00258073, Final residual = 0.000142104, No Iterations 2
smoothSolver:  Solving for k, Initial residual = 0.0150227, Final residual = 0.0010378, No Iterations 2
ExecutionTime = 0.636097 s  ClockTime = 1 s

Time = 24s

smoothSolver:  Solving for Ux, Initial residual = 0.00451226, Final residual = 0.000369415, No Iterations 2
smoothSolver:  Solving for Uy, Initial residual = 0.0288186, Final residual = 0.00175479, No Iterations 2
GAMG:  Solving for p, Initial residual = 0.144513, Final residual = 0.00389183, No Iterations 3
time step continuity errors : sum local = 5.98043e-05, global = -1.53504e-06, cumulative = -1.41262e-06
smoothSolver:  Solving for epsilon, Initial residual = 0.00242658, Final residual = 0.000134852, No Iterations 2
smoothSolver:  Solving for k, Initial residual = 0.0141123, Final residual = 0.000982358, No Iterations 2
ExecutionTime = 0.652202 s  ClockTime = 1 s

Time = 25s

smoothSolver:  Solving for Ux, Initial residual = 0.0047524, Final residual = 0.000381245, No Iterations 2
smoothSolver:  Solving for Uy, Initial residual = 0.0276192, Final residual = 0.00163184, No Iterations 2
GAMG:  Solving for p, Initial residual = 0.127792, Final residual = 0.00512942, No Iterations 3
time step continuity errors : sum local = 9.16238e-05, global = 1.81251e-06, cumulative = 3.99887e-07
smoothSolver:  Solving for epsilon, Initial residual = 0.00227996, Final residual = 0.000127889, No Iterations 2
smoothSolver:  Solving for k, Initial residual = 0.0132294, Final residual = 0.00093345, No Iterations 2
ExecutionTime = 0.668858 s  ClockTime = 1 s

Time = 26s

smoothSolver:  Solving for Ux, Initial residual = 0.00477566, Final residual = 0.000380665, No Iterations 2
smoothSolver:  Solving for Uy, Initial residual = 0.0271189, Final residual = 0.00161793, No Iterations 2
GAMG:  Solving for p, Initial residual = 0.126979, Final residual = 0.00318331, No Iterations 3
time step continuity errors : sum local = 5.67153e-05, global = 3.12161e-06, cumulative = 3.5215e-06
smoothSolver:  Solving for epsilon, Initial residual = 0.00215625, Final residual = 0.000121617, No Iterations 2
smoothSolver:  Solving for k, Initial residual = 0.0124878, Final residual = 0.000887808, No Iterations 2
ExecutionTime = 0.68516 s  ClockTime = 1 s

Time = 27s

smoothSolver:  Solving for Ux, Initial residual = 0.00454448, Final residual = 0.000360425, No Iterations 2
smoothSolver:  Solving for Uy, Initial residual = 0.0267142, Final residual = 0.00157886, No Iterations 2
GAMG:  Solving for p, Initial residual = 0.123879, Final residual = 0.00304643, No Iterations 3
time step continuity errors : sum local = 5.32575e-05, global = 1.61732e-06, cumulative = 5.13882e-06
smoothSolver:  Solving for epsilon, Initial residual = 0.00205675, Final residual = 0.000117515, No Iterations 2
smoothSolver:  Solving for k, Initial residual = 0.0118324, Final residual = 0.000838917, No Iterations 2
ExecutionTime = 0.701858 s  ClockTime = 1 s

Time = 28s

smoothSolver:  Solving for Ux, Initial residual = 0.00425624, Final residual = 0.000340968, No Iterations 2
smoothSolver:  Solving for Uy, Initial residual = 0.0247688, Final residual = 0.001459, No Iterations 2
GAMG:  Solving for p, Initial residual = 0.125388, Final residual = 0.00312708, No Iterations 3
time step continuity errors : sum local = 5.02218e-05, global = 2.72208e-06, cumulative = 7.8609e-06
smoothSolver:  Solving for epsilon, Initial residual = 0.00195265, Final residual = 0.000112858, No Iterations 2
smoothSolver:  Solving for k, Initial residual = 0.0111717, Final residual = 0.000798746, No Iterations 2
ExecutionTime = 0.71936 s  ClockTime = 1 s

Time = 29s

smoothSolver:  Solving for Ux, Initial residual = 0.0039057, Final residual = 0.000317506, No Iterations 2
smoothSolver:  Solving for Uy, Initial residual = 0.0228288, Final residual = 0.00132539, No Iterations 2
GAMG:  Solving for p, Initial residual = 0.131076, Final residual = 0.00495618, No Iterations 3
time step continuity errors : sum local = 7.17433e-05, global = 4.52308e-07, cumulative = 8.31321e-06
smoothSolver:  Solving for epsilon, Initial residual = 0.0018658, Final residual = 0.000108147, No Iterations 2
smoothSolver:  Solving for k, Initial residual = 0.0106259, Final residual = 0.000750596, No Iterations 2
ExecutionTime = 0.736855 s  ClockTime = 1 s

Time = 30s

smoothSolver:  Solving for Ux, Initial residual = 0.00369854, Final residual = 0.000307128, No Iterations 2
smoothSolver:  Solving for Uy, Initial residual = 0.0213756, Final residual = 0.00123153, No Iterations 2
GAMG:  Solving for p, Initial residual = 0.126524, Final residual = 0.00343359, No Iterations 3
time step continuity errors : sum local = 4.89296e-05, global = -3.2204e-06, cumulative = 5.09281e-06
smoothSolver:  Solving for epsilon, Initial residual = 0.00176726, Final residual = 0.00010273, No Iterations 2
smoothSolver:  Solving for k, Initial residual = 0.0101002, Final residual = 0.000725254, No Iterations 2
ExecutionTime = 0.75566 s  ClockTime = 1 s

Time = 31s

smoothSolver:  Solving for Ux, Initial residual = 0.00361651, Final residual = 0.00029322, No Iterations 2
smoothSolver:  Solving for Uy, Initial residual = 0.0207041, Final residual = 0.00118518, No Iterations 2
GAMG:  Solving for p, Initial residual = 0.129384, Final residual = 0.00278498, No Iterations 3
time step continuity errors : sum local = 3.83105e-05, global = -1.60098e-06, cumulative = 3.49182e-06
smoothSolver:  Solving for epsilon, Initial residual = 0.00170358, Final residual = 9.87729e-05, No Iterations 2
smoothSolver:  Solving for k, Initial residual = 0.0096129, Final residual = 0.000690752, No Iterations 2
ExecutionTime = 0.773356 s  ClockTime = 1 s

Time = 32s

smoothSolver:  Solving for Ux, Initial residual = 0.00362439, Final residual = 0.000289277, No Iterations 2
smoothSolver:  Solving for Uy, Initial residual = 0.0199488, Final residual = 0.00117027, No Iterations 2
GAMG:  Solving for p, Initial residual = 0.119205, Final residual = 0.00338977, No Iterations 3
time step continuity errors : sum local = 5.00777e-05, global = -2.56629e-06, cumulative = 9.25537e-07
smoothSolver:  Solving for epsilon, Initial residual = 0.00163431, Final residual = 9.56617e-05, No Iterations 2
smoothSolver:  Solving for k, Initial residual = 0.0091487, Final residual = 0.000664705, No Iterations 2
ExecutionTime = 0.792014 s  ClockTime = 1 s

Time = 33s

smoothSolver:  Solving for Ux, Initial residual = 0.00358144, Final residual = 0.000288993, No Iterations 2
smoothSolver:  Solving for Uy, Initial residual = 0.0197171, Final residual = 0.00117005, No Iterations 2
GAMG:  Solving for p, Initial residual = 0.112803, Final residual = 0.00304532, No Iterations 3
time step continuity errors : sum local = 4.67677e-05, global = 8.68595e-07, cumulative = 1.79413e-06
smoothSolver:  Solving for epsilon, Initial residual = 0.00156828, Final residual = 9.31748e-05, No Iterations 2
smoothSolver:  Solving for k, Initial residual = 0.00872148, Final residual = 0.000626799, No Iterations 2
ExecutionTime = 0.811093 s  ClockTime = 1 s

Time = 34s

smoothSolver:  Solving for Ux, Initial residual = 0.00354813, Final residual = 0.000285121, No Iterations 2
smoothSolver:  Solving for Uy, Initial residual = 0.0189461, Final residual = 0.00112574, No Iterations 2
GAMG:  Solving for p, Initial residual = 0.109462, Final residual = 0.00340334, No Iterations 3
time step continuity errors : sum local = 5.27865e-05, global = 5.24981e-07, cumulative = 2.31911e-06
smoothSolver:  Solving for epsilon, Initial residual = 0.00150064, Final residual = 8.83521e-05, No Iterations 2
smoothSolver:  Solving for k, Initial residual = 0.00832228, Final residual = 0.000611192, No Iterations 2
ExecutionTime = 0.828438 s  ClockTime = 1 s

Time = 35s

smoothSolver:  Solving for Ux, Initial residual = 0.00345828, Final residual = 0.000275768, No Iterations 2
smoothSolver:  Solving for Uy, Initial residual = 0.0181883, Final residual = 0.00103191, No Iterations 2
GAMG:  Solving for p, Initial residual = 0.110644, Final residual = 0.00215258, No Iterations 3
time step continuity errors : sum local = 3.26312e-05, global = 1.43991e-06, cumulative = 3.75902e-06
smoothSolver:  Solving for epsilon, Initial residual = 0.00144614, Final residual = 8.56525e-05, No Iterations 2
smoothSolver:  Solving for k, Initial residual = 0.00800571, Final residual = 0.000582098, No Iterations 2
ExecutionTime = 0.845121 s  ClockTime = 1 s

Time = 36s

smoothSolver:  Solving for Ux, Initial residual = 0.00329908, Final residual = 0.000263895, No Iterations 2
smoothSolver:  Solving for Uy, Initial residual = 0.0172829, Final residual = 0.00100447, No Iterations 2
GAMG:  Solving for p, Initial residual = 0.112377, Final residual = 0.00230061, No Iterations 3
time step continuity errors : sum local = 3.35133e-05, global = 1.62531e-06, cumulative = 5.38433e-06
smoothSolver:  Solving for epsilon, Initial residual = 0.00139685, Final residual = 8.16252e-05, No Iterations 2
smoothSolver:  Solving for k, Initial residual = 0.00763715, Final residual = 0.000558567, No Iterations 2
ExecutionTime = 0.862066 s  ClockTime = 1 s

Time = 37s

smoothSolver:  Solving for Ux, Initial residual = 0.00316712, Final residual = 0.000253417, No Iterations 2
smoothSolver:  Solving for Uy, Initial residual = 0.0168122, Final residual = 0.000957453, No Iterations 2
GAMG:  Solving for p, Initial residual = 0.112094, Final residual = 0.00311243, No Iterations 3
time step continuity errors : sum local = 4.27565e-05, global = 1.7816e-06, cumulative = 7.16593e-06
smoothSolver:  Solving for epsilon, Initial residual = 0.00134965, Final residual = 7.99883e-05, No Iterations 2
smoothSolver:  Solving for k, Initial residual = 0.00731718, Final residual = 0.000541817, No Iterations 2
ExecutionTime = 0.878838 s  ClockTime = 1 s

Time = 38s

smoothSolver:  Solving for Ux, Initial residual = 0.00305698, Final residual = 0.00025081, No Iterations 2
smoothSolver:  Solving for Uy, Initial residual = 0.0155806, Final residual = 0.000886726, No Iterations 2
GAMG:  Solving for p, Initial residual = 0.106762, Final residual = 0.0028407, No Iterations 3
time step continuity errors : sum local = 3.94513e-05, global = -1.32189e-06, cumulative = 5.84405e-06
smoothSolver:  Solving for epsilon, Initial residual = 0.00130258, Final residual = 7.80082e-05, No Iterations 2
smoothSolver:  Solving for k, Initial residual = 0.00701335, Final residual = 0.000515124, No Iterations 2
ExecutionTime = 0.894871 s  ClockTime = 1 s

Time = 39s

smoothSolver:  Solving for Ux, Initial residual = 0.00299443, Final residual = 0.000244633, No Iterations 2
smoothSolver:  Solving for Uy, Initial residual = 0.0153175, Final residual = 0.000861246, No Iterations 2
GAMG:  Solving for p, Initial residual = 0.104892, Final residual = 0.00318712, No Iterations 3
time step continuity errors : sum local = 4.44476e-05, global = -1.91806e-06, cumulative = 3.92599e-06
smoothSolver:  Solving for epsilon, Initial residual = 0.00126643, Final residual = 7.59896e-05, No Iterations 2
smoothSolver:  Solving for k, Initial residual = 0.00677536, Final residual = 0.000505062, No Iterations 2
ExecutionTime = 0.910936 s  ClockTime = 1 s

Time = 40s

smoothSolver:  Solving for Ux, Initial residual = 0.00295415, Final residual = 0.000242044, No Iterations 2
smoothSolver:  Solving for Uy, Initial residual = 0.0148373, Final residual = 0.000851495, No Iterations 2
GAMG:  Solving for p, Initial residual = 0.10336, Final residual = 0.00288279, No Iterations 3
time step continuity errors : sum local = 4.02203e-05, global = -1.02192e-06, cumulative = 2.90408e-06
smoothSolver:  Solving for epsilon, Initial residual = 0.00122714, Final residual = 7.25114e-05, No Iterations 2
smoothSolver:  Solving for k, Initial residual = 0.00650116, Final residual = 0.000482788, No Iterations 2
ExecutionTime = 0.92714 s  ClockTime = 1 s

Time = 41s

smoothSolver:  Solving for Ux, Initial residual = 0.00291048, Final residual = 0.000232517, No Iterations 2
smoothSolver:  Solving for Uy, Initial residual = 0.0146236, Final residual = 0.000816389, No Iterations 2
GAMG:  Solving for p, Initial residual = 0.0989051, Final residual = 0.00246931, No Iterations 3
time step continuity errors : sum local = 3.53149e-05, global = 4.5511e-07, cumulative = 3.35919e-06
smoothSolver:  Solving for epsilon, Initial residual = 0.00118901, Final residual = 7.04967e-05, No Iterations 2
smoothSolver:  Solving for k, Initial residual = 0.00626912, Final residual = 0.000472449, No Iterations 2
ExecutionTime = 0.943498 s  ClockTime = 1 s

Time = 42s

smoothSolver:  Solving for Ux, Initial residual = 0.00286224, Final residual = 0.000231017, No Iterations 2
smoothSolver:  Solving for Uy, Initial residual = 0.0137843, Final residual = 0.000780164, No Iterations 2
GAMG:  Solving for p, Initial residual = 0.0961786, Final residual = 0.00249996, No Iterations 3
time step continuity errors : sum local = 3.59965e-05, global = 2.12058e-06, cumulative = 5.47977e-06
smoothSolver:  Solving for epsilon, Initial residual = 0.00115831, Final residual = 6.86003e-05, No Iterations 2
smoothSolver:  Solving for k, Initial residual = 0.00603356, Final residual = 0.000454359, No Iterations 2
ExecutionTime = 0.959629 s  ClockTime = 1 s

Time = 43s

smoothSolver:  Solving for Ux, Initial residual = 0.00279221, Final residual = 0.000226158, No Iterations 2
smoothSolver:  Solving for Uy, Initial residual = 0.01349, Final residual = 0.000755758, No Iterations 2
GAMG:  Solving for p, Initial residual = 0.0975845, Final residual = 0.00248739, No Iterations 3
time step continuity errors : sum local = 3.45575e-05, global = 1.05669e-06, cumulative = 6.53646e-06
smoothSolver:  Solving for epsilon, Initial residual = 0.00112563, Final residual = 6.8133e-05, No Iterations 2
smoothSolver:  Solving for k, Initial residual = 0.00581342, Final residual = 0.000432011, No Iterations 2
ExecutionTime = 0.976016 s  ClockTime = 1 s

Time = 44s

smoothSolver:  Solving for Ux, Initial residual = 0.00272233, Final residual = 0.000217553, No Iterations 2
smoothSolver:  Solving for Uy, Initial residual = 0.0131274, Final residual = 0.000743955, No Iterations 2
GAMG:  Solving for p, Initial residual = 0.0972097, Final residual = 0.00268311, No Iterations 3
time step continuity errors : sum local = 3.68523e-05, global = 1.37779e-06, cumulative = 7.91425e-06
smoothSolver:  Solving for epsilon, Initial residual = 0.0010925, Final residual = 6.62652e-05, No Iterations 2
smoothSolver:  Solving for k, Initial residual = 0.00560352, Final residual = 0.00041855, No Iterations 2
ExecutionTime = 0.993119 s  ClockTime = 1 s

Time = 45s

smoothSolver:  Solving for Ux, Initial residual = 0.00265222, Final residual = 0.000215034, No Iterations 2
smoothSolver:  Solving for Uy, Initial residual = 0.0128132, Final residual = 0.000717647, No Iterations 2
GAMG:  Solving for p, Initial residual = 0.0959685, Final residual = 0.00279179, No Iterations 3
time step continuity errors : sum local = 3.72454e-05, global = -7.39575e-07, cumulative = 7.17467e-06
smoothSolver:  Solving for epsilon, Initial residual = 0.00106375, Final residual = 6.46767e-05, No Iterations 2
smoothSolver:  Solving for k, Initial residual = 0.00542174, Final residual = 0.000408771, No Iterations 2
ExecutionTime = 1.00962 s  ClockTime = 1 s

Time = 46s

smoothSolver:  Solving for Ux, Initial residual = 0.00256968, Final residual = 0.000207962, No Iterations 2
smoothSolver:  Solving for Uy, Initial residual = 0.0120975, Final residual = 0.000676981, No Iterations 2
GAMG:  Solving for p, Initial residual = 0.0940845, Final residual = 0.00221843, No Iterations 3
time step continuity errors : sum local = 2.98485e-05, global = -2.942e-07, cumulative = 6.88047e-06
smoothSolver:  Solving for epsilon, Initial residual = 0.00103115, Final residual = 6.3058e-05, No Iterations 2
smoothSolver:  Solving for k, Initial residual = 0.00522336, Final residual = 0.000389703, No Iterations 2
ExecutionTime = 1.02631 s  ClockTime = 1 s

Time = 47s

smoothSolver:  Solving for Ux, Initial residual = 0.00251696, Final residual = 0.000205704, No Iterations 2
smoothSolver:  Solving for Uy, Initial residual = 0.0118878, Final residual = 0.000644001, No Iterations 2
GAMG:  Solving for p, Initial residual = 0.0915022, Final residual = 0.00199624, No Iterations 3
time step continuity errors : sum local = 2.67091e-05, global = -9.31403e-07, cumulative = 5.94907e-06
smoothSolver:  Solving for epsilon, Initial residual = 0.00100452, Final residual = 6.14009e-05, No Iterations 2
smoothSolver:  Solving for k, Initial residual = 0.00505039, Final residual = 0.000383584, No Iterations 2
ExecutionTime = 1.04273 s  ClockTime = 1 s

Time = 48s

smoothSolver:  Solving for Ux, Initial residual = 0.00248182, Final residual = 0.000203459, No Iterations 2
smoothSolver:  Solving for Uy, Initial residual = 0.0115212, Final residual = 0.000635539, No Iterations 2
GAMG:  Solving for p, Initial residual = 0.0895136, Final residual = 0.00228089, No Iterations 3
time step continuity errors : sum local = 3.02228e-05, global = 7.55227e-07, cumulative = 6.7043e-06
smoothSolver:  Solving for epsilon, Initial residual = 0.000979478, Final residual = 5.90069e-05, No Iterations 2
smoothSolver:  Solving for k, Initial residual = 0.00488621, Final residual = 0.000372521, No Iterations 2
ExecutionTime = 1.05882 s  ClockTime = 1 s

Time = 49s

smoothSolver:  Solving for Ux, Initial residual = 0.00242482, Final residual = 0.000195866, No Iterations 2
smoothSolver:  Solving for Uy, Initial residual = 0.0113315, Final residual = 0.000623533, No Iterations 2
GAMG:  Solving for p, Initial residual = 0.0884614, Final residual = 0.00221122, No Iterations 3
time step continuity errors : sum local = 2.97533e-05, global = -7.9413e-07, cumulative = 5.91017e-06
smoothSolver:  Solving for epsilon, Initial residual = 0.000958456, Final residual = 5.81684e-05, No Iterations 2
smoothSolver:  Solving for k, Initial residual = 0.00472166, Final residual = 0.000360178, No Iterations 2
ExecutionTime = 1.07523 s  ClockTime = 1 s

Time = 50s

smoothSolver:  Solving for Ux, Initial residual = 0.00238471, Final residual = 0.000192596, No Iterations 2
smoothSolver:  Solving for Uy, Initial residual = 0.0108539, Final residual = 0.000605847, No Iterations 2
GAMG:  Solving for p, Initial residual = 0.0838854, Final residual = 0.00172107, No Iterations 3
time step continuity errors : sum local = 2.36829e-05, global = -2.90828e-08, cumulative = 5.88108e-06
smoothSolver:  Solving for epsilon, Initial residual = 0.000933031, Final residual = 5.6723e-05, No Iterations 2
smoothSolver:  Solving for k, Initial residual = 0.00457454, Final residual = 0.000346212, No Iterations 2
ExecutionTime = 1.09123 s  ClockTime = 1 s

Time = 51s

smoothSolver:  Solving for Ux, Initial residual = 0.00233075, Final residual = 0.000188473, No Iterations 2
smoothSolver:  Solving for Uy, Initial residual = 0.0106148, Final residual = 0.000586817, No Iterations 2
GAMG:  Solving for p, Initial residual = 0.086748, Final residual = 0.00405443, No Iterations 2
time step continuity errors : sum local = 5.42331e-05, global = 5.62597e-07, cumulative = 6.44368e-06
smoothSolver:  Solving for epsilon, Initial residual = 0.000909355, Final residual = 5.63284e-05, No Iterations 2
smoothSolver:  Solving for k, Initial residual = 0.00443543, Final residual = 0.000333595, No Iterations 2
ExecutionTime = 1.10644 s  ClockTime = 1 s

Time = 52s

smoothSolver:  Solving for Ux, Initial residual = 0.00228743, Final residual = 0.000184955, No Iterations 2
smoothSolver:  Solving for Uy, Initial residual = 0.0101838, Final residual = 0.000560809, No Iterations 2
GAMG:  Solving for p, Initial residual = 0.0810829, Final residual = 0.00203425, No Iterations 3
time step continuity errors : sum local = 2.83093e-05, global = 4.0556e-07, cumulative = 6.84924e-06
smoothSolver:  Solving for epsilon, Initial residual = 0.000884485, Final residual = 5.46217e-05, No Iterations 2
smoothSolver:  Solving for k, Initial residual = 0.00430507, Final residual = 0.000324489, No Iterations 2
ExecutionTime = 1.12323 s  ClockTime = 2 s

Time = 53s

smoothSolver:  Solving for Ux, Initial residual = 0.00224784, Final residual = 0.000180375, No Iterations 2
smoothSolver:  Solving for Uy, Initial residual = 0.0101103, Final residual = 0.000546775, No Iterations 2
GAMG:  Solving for p, Initial residual = 0.0829528, Final residual = 0.00220325, No Iterations 3
time step continuity errors : sum local = 2.9378e-05, global = -3.02212e-07, cumulative = 6.54703e-06
smoothSolver:  Solving for epsilon, Initial residual = 0.000862689, Final residual = 5.30706e-05, No Iterations 2
smoothSolver:  Solving for k, Initial residual = 0.0041784, Final residual = 0.000316459, No Iterations 2
ExecutionTime = 1.14049 s  ClockTime = 2 s

Time = 54s

smoothSolver:  Solving for Ux, Initial residual = 0.00220925, Final residual = 0.00017729, No Iterations 2
smoothSolver:  Solving for Uy, Initial residual = 0.00989375, Final residual = 0.000540126, No Iterations 2
GAMG:  Solving for p, Initial residual = 0.0820187, Final residual = 0.00200017, No Iterations 3
time step continuity errors : sum local = 2.63822e-05, global = 5.64012e-07, cumulative = 7.11104e-06
smoothSolver:  Solving for epsilon, Initial residual = 0.000843257, Final residual = 5.21097e-05, No Iterations 2
smoothSolver:  Solving for k, Initial residual = 0.00404857, Final residual = 0.000307038, No Iterations 2
ExecutionTime = 1.15774 s  ClockTime = 2 s

Time = 55s

smoothSolver:  Solving for Ux, Initial residual = 0.00216096, Final residual = 0.000174257, No Iterations 2
smoothSolver:  Solving for Uy, Initial residual = 0.00982892, Final residual = 0.000538806, No Iterations 2
GAMG:  Solving for p, Initial residual = 0.080685, Final residual = 0.00392333, No Iterations 2
time step continuity errors : sum local = 5.21051e-05, global = 6.31627e-07, cumulative = 7.74267e-06
smoothSolver:  Solving for epsilon, Initial residual = 0.000822596, Final residual = 5.13612e-05, No Iterations 2
smoothSolver:  Solving for k, Initial residual = 0.00392864, Final residual = 0.000299534, No Iterations 2
ExecutionTime = 1.17295 s  ClockTime = 2 s

Time = 56s

smoothSolver:  Solving for Ux, Initial residual = 0.00211581, Final residual = 0.000170148, No Iterations 2
smoothSolver:  Solving for Uy, Initial residual = 0.00948223, Final residual = 0.000526649, No Iterations 2
GAMG:  Solving for p, Initial residual = 0.0820599, Final residual = 0.00403144, No Iterations 2
time step continuity errors : sum local = 5.17762e-05, global = -1.72605e-07, cumulative = 7.57006e-06
smoothSolver:  Solving for epsilon, Initial residual = 0.000802983, Final residual = 5.08987e-05, No Iterations 2
smoothSolver:  Solving for k, Initial residual = 0.00382468, Final residual = 0.000285769, No Iterations 2
ExecutionTime = 1.18826 s  ClockTime = 2 s

Time = 57s

smoothSolver:  Solving for Ux, Initial residual = 0.00206558, Final residual = 0.000168032, No Iterations 2
smoothSolver:  Solving for Uy, Initial residual = 0.00919756, Final residual = 0.000498135, No Iterations 2
GAMG:  Solving for p, Initial residual = 0.080742, Final residual = 0.00173104, No Iterations 3
time step continuity errors : sum local = 2.27279e-05, global = -3.54138e-07, cumulative = 7.21592e-06
smoothSolver:  Solving for epsilon, Initial residual = 0.000784509, Final residual = 4.95789e-05, No Iterations 2
smoothSolver:  Solving for k, Initial residual = 0.00370478, Final residual = 0.000281991, No Iterations 2
ExecutionTime = 1.20461 s  ClockTime = 2 s

Time = 58s

smoothSolver:  Solving for Ux, Initial residual = 0.0020213, Final residual = 0.000163133, No Iterations 2
smoothSolver:  Solving for Uy, Initial residual = 0.00891253, Final residual = 0.000488334, No Iterations 2
GAMG:  Solving for p, Initial residual = 0.0792323, Final residual = 0.00392518, No Iterations 2
time step continuity errors : sum local = 5.0147e-05, global = -1.2635e-06, cumulative = 5.95242e-06
smoothSolver:  Solving for epsilon, Initial residual = 0.000769246, Final residual = 4.86554e-05, No Iterations 2
smoothSolver:  Solving for k, Initial residual = 0.00360111, Final residual = 0.00027043, No Iterations 2
ExecutionTime = 1.22044 s  ClockTime = 2 s

Time = 59s

smoothSolver:  Solving for Ux, Initial residual = 0.00199021, Final residual = 0.000159386, No Iterations 2
smoothSolver:  Solving for Uy, Initial residual = 0.0088178, Final residual = 0.000478608, No Iterations 2
GAMG:  Solving for p, Initial residual = 0.0786277, Final residual = 0.00151799, No Iterations 3
time step continuity errors : sum local = 1.93815e-05, global = -3.70124e-07, cumulative = 5.58229e-06
smoothSolver:  Solving for epsilon, Initial residual = 0.000752559, Final residual = 4.78991e-05, No Iterations 2
smoothSolver:  Solving for k, Initial residual = 0.00352132, Final residual = 0.000263113, No Iterations 2
ExecutionTime = 1.23846 s  ClockTime = 2 s

Time = 60s

smoothSolver:  Solving for Ux, Initial residual = 0.00194607, Final residual = 0.000156038, No Iterations 2
smoothSolver:  Solving for Uy, Initial residual = 0.00861838, Final residual = 0.000472819, No Iterations 2
GAMG:  Solving for p, Initial residual = 0.0778395, Final residual = 0.00165811, No Iterations 3
time step continuity errors : sum local = 2.13876e-05, global = 1.67503e-07, cumulative = 5.7498e-06
smoothSolver:  Solving for epsilon, Initial residual = 0.000734709, Final residual = 4.61289e-05, No Iterations 2
smoothSolver:  Solving for k, Initial residual = 0.00341239, Final residual = 0.000257696, No Iterations 2
ExecutionTime = 1.25547 s  ClockTime = 2 s

Time = 61s

smoothSolver:  Solving for Ux, Initial residual = 0.00191446, Final residual = 0.000155105, No Iterations 2
smoothSolver:  Solving for Uy, Initial residual = 0.00849979, Final residual = 0.000462437, No Iterations 2
GAMG:  Solving for p, Initial residual = 0.0766858, Final residual = 0.00183002, No Iterations 3
time step continuity errors : sum local = 2.32513e-05, global = 1.16895e-07, cumulative = 5.86669e-06
smoothSolver:  Solving for epsilon, Initial residual = 0.000723054, Final residual = 4.5965e-05, No Iterations 2
smoothSolver:  Solving for k, Initial residual = 0.00332092, Final residual = 0.000249242, No Iterations 2
ExecutionTime = 1.27249 s  ClockTime = 2 s

Time = 62s

smoothSolver:  Solving for Ux, Initial residual = 0.0018966, Final residual = 0.000154825, No Iterations 2
smoothSolver:  Solving for Uy, Initial residual = 0.00837019, Final residual = 0.000457855, No Iterations 2
GAMG:  Solving for p, Initial residual = 0.0741808, Final residual = 0.00367366, No Iterations 2
time step continuity errors : sum local = 4.78738e-05, global = 8.14435e-07, cumulative = 6.68113e-06
smoothSolver:  Solving for epsilon, Initial residual = 0.00070689, Final residual = 4.48234e-05, No Iterations 2
smoothSolver:  Solving for k, Initial residual = 0.00324771, Final residual = 0.000245474, No Iterations 2
ExecutionTime = 1.29018 s  ClockTime = 2 s

Time = 63s

smoothSolver:  Solving for Ux, Initial residual = 0.00186272, Final residual = 0.000150303, No Iterations 2
smoothSolver:  Solving for Uy, Initial residual = 0.0082079, Final residual = 0.000444648, No Iterations 2
GAMG:  Solving for p, Initial residual = 0.0744717, Final residual = 0.00161912, No Iterations 3
time step continuity errors : sum local = 2.09108e-05, global = -4.26966e-07, cumulative = 6.25416e-06
smoothSolver:  Solving for epsilon, Initial residual = 0.000692367, Final residual = 4.35525e-05, No Iterations 2
smoothSolver:  Solving for k, Initial residual = 0.00315776, Final residual = 0.000237962, No Iterations 2
ExecutionTime = 1.30855 s  ClockTime = 2 s

Time = 64s

smoothSolver:  Solving for Ux, Initial residual = 0.00182906, Final residual = 0.000148028, No Iterations 2
smoothSolver:  Solving for Uy, Initial residual = 0.00797705, Final residual = 0.000439163, No Iterations 2
GAMG:  Solving for p, Initial residual = 0.0733171, Final residual = 0.00361641, No Iterations 2
time step continuity errors : sum local = 4.6646e-05, global = 2.10959e-07, cumulative = 6.46512e-06
smoothSolver:  Solving for epsilon, Initial residual = 0.000676041, Final residual = 4.30783e-05, No Iterations 2
smoothSolver:  Solving for k, Initial residual = 0.00308226, Final residual = 0.000232256, No Iterations 2
ExecutionTime = 1.32563 s  ClockTime = 2 s

Time = 65s

smoothSolver:  Solving for Ux, Initial residual = 0.00179349, Final residual = 0.000143548, No Iterations 2
smoothSolver:  Solving for Uy, Initial residual = 0.00780059, Final residual = 0.000421037, No Iterations 2
GAMG:  Solving for p, Initial residual = 0.0718053, Final residual = 0.00149013, No Iterations 3
time step continuity errors : sum local = 1.94322e-05, global = 1.14218e-07, cumulative = 6.57934e-06
smoothSolver:  Solving for epsilon, Initial residual = 0.0006626, Final residual = 4.23195e-05, No Iterations 2
smoothSolver:  Solving for k, Initial residual = 0.00300052, Final residual = 0.000227781, No Iterations 2
ExecutionTime = 1.34326 s  ClockTime = 2 s

Time = 66s

smoothSolver:  Solving for Ux, Initial residual = 0.0017545, Final residual = 0.00014181, No Iterations 2
smoothSolver:  Solving for Uy, Initial residual = 0.00768527, Final residual = 0.000422742, No Iterations 2
GAMG:  Solving for p, Initial residual = 0.0709438, Final residual = 0.00345808, No Iterations 2
time step continuity errors : sum local = 4.47726e-05, global = -2.67138e-07, cumulative = 6.3122e-06
smoothSolver:  Solving for epsilon, Initial residual = 0.000649861, Final residual = 4.16604e-05, No Iterations 2
smoothSolver:  Solving for k, Initial residual = 0.00294493, Final residual = 0.000225712, No Iterations 2
ExecutionTime = 1.35927 s  ClockTime = 2 s

Time = 67s

smoothSolver:  Solving for Ux, Initial residual = 0.00172724, Final residual = 0.000138378, No Iterations 2
smoothSolver:  Solving for Uy, Initial residual = 0.00760554, Final residual = 0.000418568, No Iterations 2
GAMG:  Solving for p, Initial residual = 0.0699583, Final residual = 0.00151018, No Iterations 3
time step continuity errors : sum local = 1.96647e-05, global = 1.02814e-07, cumulative = 6.41501e-06
smoothSolver:  Solving for epsilon, Initial residual = 0.0006405, Final residual = 4.10397e-05, No Iterations 2
smoothSolver:  Solving for k, Initial residual = 0.00286108, Final residual = 0.000219587, No Iterations 2
ExecutionTime = 1.37728 s  ClockTime = 2 s

Time = 68s

smoothSolver:  Solving for Ux, Initial residual = 0.00170427, Final residual = 0.00013848, No Iterations 2
smoothSolver:  Solving for Uy, Initial residual = 0.00743218, Final residual = 0.000404382, No Iterations 2
GAMG:  Solving for p, Initial residual = 0.0733035, Final residual = 0.00155884, No Iterations 3
time step continuity errors : sum local = 1.88748e-05, global = 8.16748e-07, cumulative = 7.23176e-06
smoothSolver:  Solving for epsilon, Initial residual = 0.00062621, Final residual = 4.00314e-05, No Iterations 2
smoothSolver:  Solving for k, Initial residual = 0.00279697, Final residual = 0.000213732, No Iterations 2
ExecutionTime = 1.39352 s  ClockTime = 2 s

Time = 69s

smoothSolver:  Solving for Ux, Initial residual = 0.0016686, Final residual = 0.000135577, No Iterations 2
smoothSolver:  Solving for Uy, Initial residual = 0.00735441, Final residual = 0.000396931, No Iterations 2
GAMG:  Solving for p, Initial residual = 0.0631525, Final residual = 0.0028778, No Iterations 2
time step continuity errors : sum local = 3.91958e-05, global = 2.33779e-07, cumulative = 7.46554e-06
smoothSolver:  Solving for epsilon, Initial residual = 0.00061456, Final residual = 3.9649e-05, No Iterations 2
smoothSolver:  Solving for k, Initial residual = 0.0027316, Final residual = 0.000209564, No Iterations 2
ExecutionTime = 1.40932 s  ClockTime = 2 s

Time = 70s

smoothSolver:  Solving for Ux, Initial residual = 0.00164656, Final residual = 0.000131709, No Iterations 2
smoothSolver:  Solving for Uy, Initial residual = 0.00716071, Final residual = 0.000390625, No Iterations 2
GAMG:  Solving for p, Initial residual = 0.0710085, Final residual = 0.00351068, No Iterations 2
time step continuity errors : sum local = 4.28464e-05, global = 3.20901e-07, cumulative = 7.78644e-06
smoothSolver:  Solving for epsilon, Initial residual = 0.000600405, Final residual = 3.90244e-05, No Iterations 2
smoothSolver:  Solving for k, Initial residual = 0.00267507, Final residual = 0.000201644, No Iterations 2
ExecutionTime = 1.42438 s  ClockTime = 2 s

Time = 71s

smoothSolver:  Solving for Ux, Initial residual = 0.00160577, Final residual = 0.000129825, No Iterations 2
smoothSolver:  Solving for Uy, Initial residual = 0.00706834, Final residual = 0.000386279, No Iterations 2
GAMG:  Solving for p, Initial residual = 0.0655733, Final residual = 0.00143262, No Iterations 3
time step continuity errors : sum local = 1.85935e-05, global = -2.68389e-08, cumulative = 7.7596e-06
smoothSolver:  Solving for epsilon, Initial residual = 0.000589098, Final residual = 3.81735e-05, No Iterations 2
smoothSolver:  Solving for k, Initial residual = 0.00261396, Final residual = 0.000198574, No Iterations 2
ExecutionTime = 1.44095 s  ClockTime = 2 s

Time = 72s

smoothSolver:  Solving for Ux, Initial residual = 0.00158317, Final residual = 0.000128346, No Iterations 2
smoothSolver:  Solving for Uy, Initial residual = 0.00692158, Final residual = 0.00038058, No Iterations 2
GAMG:  Solving for p, Initial residual = 0.0687872, Final residual = 0.00314096, No Iterations 2
time step continuity errors : sum local = 3.92794e-05, global = -1.1497e-07, cumulative = 7.64463e-06
smoothSolver:  Solving for epsilon, Initial residual = 0.00057812, Final residual = 3.75095e-05, No Iterations 2
smoothSolver:  Solving for k, Initial residual = 0.0025506, Final residual = 0.000193211, No Iterations 2
ExecutionTime = 1.45693 s  ClockTime = 2 s

Time = 73s

smoothSolver:  Solving for Ux, Initial residual = 0.00155938, Final residual = 0.000126941, No Iterations 2
smoothSolver:  Solving for Uy, Initial residual = 0.00683591, Final residual = 0.000374043, No Iterations 2
GAMG:  Solving for p, Initial residual = 0.0639694, Final residual = 0.00308766, No Iterations 2
time step continuity errors : sum local = 4.10727e-05, global = -2.45939e-07, cumulative = 7.39869e-06
smoothSolver:  Solving for epsilon, Initial residual = 0.000567352, Final residual = 3.64442e-05, No Iterations 2
smoothSolver:  Solving for k, Initial residual = 0.00249914, Final residual = 0.000193953, No Iterations 2
ExecutionTime = 1.47237 s  ClockTime = 2 s

Time = 74s

smoothSolver:  Solving for Ux, Initial residual = 0.001539, Final residual = 0.000124131, No Iterations 2
smoothSolver:  Solving for Uy, Initial residual = 0.0066884, Final residual = 0.000369992, No Iterations 2
GAMG:  Solving for p, Initial residual = 0.0648733, Final residual = 0.00302251, No Iterations 2
time step continuity errors : sum local = 3.84995e-05, global = 3.37948e-08, cumulative = 7.43249e-06
smoothSolver:  Solving for epsilon, Initial residual = 0.000555447, Final residual = 3.6296e-05, No Iterations 2
smoothSolver:  Solving for k, Initial residual = 0.00245239, Final residual = 0.000188155, No Iterations 2
ExecutionTime = 1.48779 s  ClockTime = 2 s

Time = 75s

smoothSolver:  Solving for Ux, Initial residual = 0.00151495, Final residual = 0.00012131, No Iterations 2
smoothSolver:  Solving for Uy, Initial residual = 0.00649242, Final residual = 0.000354883, No Iterations 2
GAMG:  Solving for p, Initial residual = 0.0652489, Final residual = 0.00322262, No Iterations 2
time step continuity errors : sum local = 4.06036e-05, global = -4.78069e-07, cumulative = 6.95442e-06
smoothSolver:  Solving for epsilon, Initial residual = 0.000545537, Final residual = 3.52506e-05, No Iterations 2
smoothSolver:  Solving for k, Initial residual = 0.00238597, Final residual = 0.000182019, No Iterations 2
ExecutionTime = 1.5035 s  ClockTime = 2 s

Time = 76s

smoothSolver:  Solving for Ux, Initial residual = 0.00148772, Final residual = 0.000118457, No Iterations 2
smoothSolver:  Solving for Uy, Initial residual = 0.00641651, Final residual = 0.000351044, No Iterations 2
GAMG:  Solving for p, Initial residual = 0.0618341, Final residual = 0.00297876, No Iterations 2
time step continuity errors : sum local = 3.90102e-05, global = 2.30197e-07, cumulative = 7.18462e-06
smoothSolver:  Solving for epsilon, Initial residual = 0.000535429, Final residual = 3.45395e-05, No Iterations 2
smoothSolver:  Solving for k, Initial residual = 0.00234117, Final residual = 0.000181349, No Iterations 2
ExecutionTime = 1.51995 s  ClockTime = 2 s

Time = 77s

smoothSolver:  Solving for Ux, Initial residual = 0.00146423, Final residual = 0.000117997, No Iterations 2
smoothSolver:  Solving for Uy, Initial residual = 0.00636238, Final residual = 0.000343095, No Iterations 2
GAMG:  Solving for p, Initial residual = 0.0627088, Final residual = 0.00133498, No Iterations 3
time step continuity errors : sum local = 1.66018e-05, global = 6.97221e-07, cumulative = 7.88184e-06
smoothSolver:  Solving for epsilon, Initial residual = 0.000525804, Final residual = 3.42821e-05, No Iterations 2
smoothSolver:  Solving for k, Initial residual = 0.00229738, Final residual = 0.000176727, No Iterations 2
ExecutionTime = 1.53641 s  ClockTime = 2 s

Time = 78s

smoothSolver:  Solving for Ux, Initial residual = 0.00143731, Final residual = 0.00011685, No Iterations 2
smoothSolver:  Solving for Uy, Initial residual = 0.00637476, Final residual = 0.000351301, No Iterations 2
GAMG:  Solving for p, Initial residual = 0.0616771, Final residual = 0.0028418, No Iterations 2
time step continuity errors : sum local = 3.62519e-05, global = 6.67735e-07, cumulative = 8.54957e-06
smoothSolver:  Solving for epsilon, Initial residual = 0.000515541, Final residual = 3.33858e-05, No Iterations 2
smoothSolver:  Solving for k, Initial residual = 0.00224675, Final residual = 0.000173717, No Iterations 2
ExecutionTime = 1.55308 s  ClockTime = 2 s

Time = 79s

smoothSolver:  Solving for Ux, Initial residual = 0.00141414, Final residual = 0.000114494, No Iterations 2
smoothSolver:  Solving for Uy, Initial residual = 0.00631078, Final residual = 0.000343863, No Iterations 2
GAMG:  Solving for p, Initial residual = 0.0605394, Final residual = 0.00135425, No Iterations 3
time step continuity errors : sum local = 1.73725e-05, global = -3.51637e-07, cumulative = 8.19794e-06
smoothSolver:  Solving for epsilon, Initial residual = 0.000508229, Final residual = 3.29163e-05, No Iterations 2
smoothSolver:  Solving for k, Initial residual = 0.00221086, Final residual = 0.000172429, No Iterations 2
ExecutionTime = 1.57068 s  ClockTime = 2 s

Time = 80s

smoothSolver:  Solving for Ux, Initial residual = 0.00139999, Final residual = 0.00011366, No Iterations 2
smoothSolver:  Solving for Uy, Initial residual = 0.00617091, Final residual = 0.000338444, No Iterations 2
GAMG:  Solving for p, Initial residual = 0.0598522, Final residual = 0.00286027, No Iterations 2
time step continuity errors : sum local = 3.68994e-05, global = -5.88339e-07, cumulative = 7.6096e-06
smoothSolver:  Solving for epsilon, Initial residual = 0.000498338, Final residual = 3.23205e-05, No Iterations 2
smoothSolver:  Solving for k, Initial residual = 0.0021599, Final residual = 0.000166982, No Iterations 2
ExecutionTime = 1.58665 s  ClockTime = 2 s

Time = 81s

smoothSolver:  Solving for Ux, Initial residual = 0.0013786, Final residual = 0.000110653, No Iterations 2
smoothSolver:  Solving for Uy, Initial residual = 0.00604112, Final residual = 0.000328329, No Iterations 2
GAMG:  Solving for p, Initial residual = 0.0585641, Final residual = 0.00278391, No Iterations 2
time step continuity errors : sum local = 3.60581e-05, global = -1.88447e-07, cumulative = 7.42115e-06
smoothSolver:  Solving for epsilon, Initial residual = 0.000489344, Final residual = 3.18352e-05, No Iterations 2
smoothSolver:  Solving for k, Initial residual = 0.00212031, Final residual = 0.000163572, No Iterations 2
ExecutionTime = 1.60286 s  ClockTime = 2 s

Time = 82s

smoothSolver:  Solving for Ux, Initial residual = 0.00135781, Final residual = 0.000108652, No Iterations 2
smoothSolver:  Solving for Uy, Initial residual = 0.00597375, Final residual = 0.000326385, No Iterations 2
GAMG:  Solving for p, Initial residual = 0.0590484, Final residual = 0.00292817, No Iterations 2
time step continuity errors : sum local = 3.66584e-05, global = 1.4567e-07, cumulative = 7.56682e-06
smoothSolver:  Solving for epsilon, Initial residual = 0.000482787, Final residual = 3.1083e-05, No Iterations 2
smoothSolver:  Solving for k, Initial residual = 0.00207565, Final residual = 0.00016111, No Iterations 2
ExecutionTime = 1.61919 s  ClockTime = 2 s

Time = 83s

smoothSolver:  Solving for Ux, Initial residual = 0.0013317, Final residual = 0.000106331, No Iterations 2
smoothSolver:  Solving for Uy, Initial residual = 0.00586857, Final residual = 0.000322061, No Iterations 2
GAMG:  Solving for p, Initial residual = 0.057691, Final residual = 0.0011276, No Iterations 3
time step continuity errors : sum local = 1.4734e-05, global = 1.31151e-07, cumulative = 7.69797e-06
smoothSolver:  Solving for epsilon, Initial residual = 0.000472631, Final residual = 3.09633e-05, No Iterations 2
smoothSolver:  Solving for k, Initial residual = 0.00203699, Final residual = 0.000157811, No Iterations 2
ExecutionTime = 1.63606 s  ClockTime = 2 s

Time = 84s

smoothSolver:  Solving for Ux, Initial residual = 0.00130698, Final residual = 0.000104769, No Iterations 2
smoothSolver:  Solving for Uy, Initial residual = 0.00581329, Final residual = 0.00031512, No Iterations 2
GAMG:  Solving for p, Initial residual = 0.057589, Final residual = 0.00272759, No Iterations 2
time step continuity errors : sum local = 3.4327e-05, global = -2.11081e-07, cumulative = 7.48689e-06
smoothSolver:  Solving for epsilon, Initial residual = 0.000463935, Final residual = 3.04648e-05, No Iterations 2
smoothSolver:  Solving for k, Initial residual = 0.00200122, Final residual = 0.000156917, No Iterations 2
ExecutionTime = 1.65281 s  ClockTime = 2 s

Time = 85s

smoothSolver:  Solving for Ux, Initial residual = 0.00129108, Final residual = 0.0001033, No Iterations 2
smoothSolver:  Solving for Uy, Initial residual = 0.00574725, Final residual = 0.000314332, No Iterations 2
GAMG:  Solving for p, Initial residual = 0.0567623, Final residual = 0.00282143, No Iterations 2
time step continuity errors : sum local = 3.57919e-05, global = 2.69568e-07, cumulative = 7.75646e-06
smoothSolver:  Solving for epsilon, Initial residual = 0.000456174, Final residual = 2.9544e-05, No Iterations 2
smoothSolver:  Solving for k, Initial residual = 0.00196355, Final residual = 0.000151427, No Iterations 2
ExecutionTime = 1.66853 s  ClockTime = 2 s

Time = 86s

smoothSolver:  Solving for Ux, Initial residual = 0.00126562, Final residual = 0.000100987, No Iterations 2
smoothSolver:  Solving for Uy, Initial residual = 0.00558998, Final residual = 0.000304572, No Iterations 2
GAMG:  Solving for p, Initial residual = 0.0565573, Final residual = 0.00114662, No Iterations 3
time step continuity errors : sum local = 1.41998e-05, global = -3.4592e-07, cumulative = 7.41054e-06
smoothSolver:  Solving for epsilon, Initial residual = 0.000448071, Final residual = 2.92533e-05, No Iterations 2
smoothSolver:  Solving for k, Initial residual = 0.00192786, Final residual = 0.000149667, No Iterations 2
ExecutionTime = 1.68654 s  ClockTime = 2 s

Time = 87s

smoothSolver:  Solving for Ux, Initial residual = 0.00124879, Final residual = 0.000100845, No Iterations 2
smoothSolver:  Solving for Uy, Initial residual = 0.00555236, Final residual = 0.000303042, No Iterations 2
GAMG:  Solving for p, Initial residual = 0.0521931, Final residual = 0.0010792, No Iterations 3
time step continuity errors : sum local = 1.43231e-05, global = -1.06235e-07, cumulative = 7.3043e-06
smoothSolver:  Solving for epsilon, Initial residual = 0.000439993, Final residual = 2.87804e-05, No Iterations 2
smoothSolver:  Solving for k, Initial residual = 0.00189482, Final residual = 0.000148783, No Iterations 2
ExecutionTime = 1.70355 s  ClockTime = 2 s

Time = 88s

smoothSolver:  Solving for Ux, Initial residual = 0.00123512, Final residual = 9.84849e-05, No Iterations 2
smoothSolver:  Solving for Uy, Initial residual = 0.00553646, Final residual = 0.000303846, No Iterations 2
GAMG:  Solving for p, Initial residual = 0.0540255, Final residual = 0.00255954, No Iterations 2
time step continuity errors : sum local = 3.249e-05, global = -2.26983e-07, cumulative = 7.07732e-06
smoothSolver:  Solving for epsilon, Initial residual = 0.000433711, Final residual = 2.84797e-05, No Iterations 2
smoothSolver:  Solving for k, Initial residual = 0.00185992, Final residual = 0.000144704, No Iterations 2
ExecutionTime = 1.72033 s  ClockTime = 2 s

Time = 89s

smoothSolver:  Solving for Ux, Initial residual = 0.00121476, Final residual = 9.7495e-05, No Iterations 2
smoothSolver:  Solving for Uy, Initial residual = 0.00545495, Final residual = 0.000301479, No Iterations 2
GAMG:  Solving for p, Initial residual = 0.053091, Final residual = 0.0026146, No Iterations 2
time step continuity errors : sum local = 3.37871e-05, global = -2.04262e-07, cumulative = 6.87306e-06
smoothSolver:  Solving for epsilon, Initial residual = 0.000425784, Final residual = 2.75541e-05, No Iterations 2
smoothSolver:  Solving for k, Initial residual = 0.00182675, Final residual = 0.000142833, No Iterations 2
ExecutionTime = 1.73608 s  ClockTime = 2 s

Time = 90s

smoothSolver:  Solving for Ux, Initial residual = 0.0011944, Final residual = 9.52445e-05, No Iterations 2
smoothSolver:  Solving for Uy, Initial residual = 0.00536336, Final residual = 0.000293186, No Iterations 2
GAMG:  Solving for p, Initial residual = 0.0537064, Final residual = 0.00117053, No Iterations 3
time step continuity errors : sum local = 1.47008e-05, global = -2.62803e-07, cumulative = 6.61026e-06
smoothSolver:  Solving for epsilon, Initial residual = 0.00041743, Final residual = 2.70391e-05, No Iterations 2
smoothSolver:  Solving for k, Initial residual = 0.00179149, Final residual = 0.00013829, No Iterations 2
ExecutionTime = 1.75307 s  ClockTime = 2 s

Time = 91s

smoothSolver:  Solving for Ux, Initial residual = 0.001178, Final residual = 9.46215e-05, No Iterations 2
smoothSolver:  Solving for Uy, Initial residual = 0.00531908, Final residual = 0.000297148, No Iterations 2
GAMG:  Solving for p, Initial residual = 0.0525656, Final residual = 0.00260594, No Iterations 2
time step continuity errors : sum local = 3.26124e-05, global = -1.32568e-07, cumulative = 6.47769e-06
smoothSolver:  Solving for epsilon, Initial residual = 0.000411267, Final residual = 2.68024e-05, No Iterations 2
smoothSolver:  Solving for k, Initial residual = 0.00176544, Final residual = 0.000138773, No Iterations 2
ExecutionTime = 1.7698 s  ClockTime = 2 s

Time = 92s

smoothSolver:  Solving for Ux, Initial residual = 0.00115514, Final residual = 9.18782e-05, No Iterations 2
smoothSolver:  Solving for Uy, Initial residual = 0.00526506, Final residual = 0.000292709, No Iterations 2
GAMG:  Solving for p, Initial residual = 0.0505305, Final residual = 0.00250974, No Iterations 2
time step continuity errors : sum local = 3.26371e-05, global = -2.30179e-07, cumulative = 6.24751e-06
smoothSolver:  Solving for epsilon, Initial residual = 0.000403644, Final residual = 2.63451e-05, No Iterations 2
smoothSolver:  Solving for k, Initial residual = 0.00173091, Final residual = 0.000135362, No Iterations 2
ExecutionTime = 1.78706 s  ClockTime = 2 s

Time = 93s

smoothSolver:  Solving for Ux, Initial residual = 0.0011426, Final residual = 9.14119e-05, No Iterations 2
smoothSolver:  Solving for Uy, Initial residual = 0.00519359, Final residual = 0.00029321, No Iterations 2
GAMG:  Solving for p, Initial residual = 0.0515898, Final residual = 0.00115651, No Iterations 3
time step continuity errors : sum local = 1.44718e-05, global = -2.26059e-07, cumulative = 6.02145e-06
smoothSolver:  Solving for epsilon, Initial residual = 0.000396839, Final residual = 2.57175e-05, No Iterations 2
smoothSolver:  Solving for k, Initial residual = 0.00169962, Final residual = 0.000134604, No Iterations 2
ExecutionTime = 1.80463 s  ClockTime = 2 s

Time = 94s

smoothSolver:  Solving for Ux, Initial residual = 0.00112702, Final residual = 8.97734e-05, No Iterations 2
smoothSolver:  Solving for Uy, Initial residual = 0.00518828, Final residual = 0.000289344, No Iterations 2
GAMG:  Solving for p, Initial residual = 0.0489735, Final residual = 0.00238868, No Iterations 2
time step continuity errors : sum local = 3.06856e-05, global = -3.9924e-07, cumulative = 5.62221e-06
smoothSolver:  Solving for epsilon, Initial residual = 0.000390918, Final residual = 2.5542e-05, No Iterations 2
smoothSolver:  Solving for k, Initial residual = 0.0016734, Final residual = 0.000132819, No Iterations 2
ExecutionTime = 1.82204 s  ClockTime = 2 s

Time = 95s

smoothSolver:  Solving for Ux, Initial residual = 0.00110876, Final residual = 8.84905e-05, No Iterations 2
smoothSolver:  Solving for Uy, Initial residual = 0.00507188, Final residual = 0.000283603, No Iterations 2
GAMG:  Solving for p, Initial residual = 0.0479304, Final residual = 0.00111392, No Iterations 3
time step continuity errors : sum local = 1.43959e-05, global = -4.86423e-07, cumulative = 5.13579e-06
smoothSolver:  Solving for epsilon, Initial residual = 0.000384365, Final residual = 2.50236e-05, No Iterations 2
smoothSolver:  Solving for k, Initial residual = 0.00164253, Final residual = 0.000129531, No Iterations 2
ExecutionTime = 1.83905 s  ClockTime = 2 s

Time = 96s

smoothSolver:  Solving for Ux, Initial residual = 0.00109802, Final residual = 8.65895e-05, No Iterations 2
smoothSolver:  Solving for Uy, Initial residual = 0.00506371, Final residual = 0.000281026, No Iterations 2
GAMG:  Solving for p, Initial residual = 0.0487028, Final residual = 0.00226366, No Iterations 2
time step continuity errors : sum local = 2.85813e-05, global = -2.11358e-07, cumulative = 4.92443e-06
smoothSolver:  Solving for epsilon, Initial residual = 0.000377958, Final residual = 2.45426e-05, No Iterations 2
smoothSolver:  Solving for k, Initial residual = 0.00161857, Final residual = 0.000127155, No Iterations 2
ExecutionTime = 1.8562 s  ClockTime = 3 s

Time = 97s

smoothSolver:  Solving for Ux, Initial residual = 0.00107806, Final residual = 8.59587e-05, No Iterations 2
smoothSolver:  Solving for Uy, Initial residual = 0.00500756, Final residual = 0.000280806, No Iterations 2
GAMG:  Solving for p, Initial residual = 0.0477652, Final residual = 0.0023251, No Iterations 2
time step continuity errors : sum local = 2.92932e-05, global = -2.58442e-07, cumulative = 4.66599e-06
smoothSolver:  Solving for epsilon, Initial residual = 0.000371823, Final residual = 2.44331e-05, No Iterations 2
smoothSolver:  Solving for k, Initial residual = 0.00159059, Final residual = 0.000125421, No Iterations 2
ExecutionTime = 1.87239 s  ClockTime = 3 s

Time = 98s

smoothSolver:  Solving for Ux, Initial residual = 0.00106573, Final residual = 8.41111e-05, No Iterations 2
smoothSolver:  Solving for Uy, Initial residual = 0.00496166, Final residual = 0.000274607, No Iterations 2
GAMG:  Solving for p, Initial residual = 0.0449821, Final residual = 0.000947645, No Iterations 3
time step continuity errors : sum local = 1.25102e-05, global = -3.82099e-07, cumulative = 4.28389e-06
smoothSolver:  Solving for epsilon, Initial residual = 0.000365258, Final residual = 2.39513e-05, No Iterations 2
smoothSolver:  Solving for k, Initial residual = 0.00156774, Final residual = 0.000124707, No Iterations 2
ExecutionTime = 1.88923 s  ClockTime = 3 s

Time = 99s

smoothSolver:  Solving for Ux, Initial residual = 0.00104758, Final residual = 8.20488e-05, No Iterations 2
smoothSolver:  Solving for Uy, Initial residual = 0.00485768, Final residual = 0.000268434, No Iterations 2
GAMG:  Solving for p, Initial residual = 0.0468874, Final residual = 0.00233272, No Iterations 2
time step continuity errors : sum local = 2.91627e-05, global = -7.26414e-07, cumulative = 3.55747e-06
smoothSolver:  Solving for epsilon, Initial residual = 0.000357894, Final residual = 2.35545e-05, No Iterations 2
smoothSolver:  Solving for k, Initial residual = 0.00153764, Final residual = 0.000121899, No Iterations 2
ExecutionTime = 1.90577 s  ClockTime = 3 s

Time = 100s

smoothSolver:  Solving for Ux, Initial residual = 0.00103248, Final residual = 8.09355e-05, No Iterations 2
smoothSolver:  Solving for Uy, Initial residual = 0.00477622, Final residual = 0.000264025, No Iterations 2
GAMG:  Solving for p, Initial residual = 0.0425481, Final residual = 0.000862265, No Iterations 3
time step continuity errors : sum local = 1.16043e-05, global = -4.91088e-07, cumulative = 3.06639e-06
smoothSolver:  Solving for epsilon, Initial residual = 0.000351583, Final residual = 2.31466e-05, No Iterations 2
smoothSolver:  Solving for k, Initial residual = 0.0015115, Final residual = 0.000117328, No Iterations 2
ExecutionTime = 1.96993 s  ClockTime = 3 s

Time = 101s

smoothSolver:  Solving for Ux, Initial residual = 0.00101969, Final residual = 8.18429e-05, No Iterations 2
smoothSolver:  Solving for Uy, Initial residual = 0.004691, Final residual = 0.000260577, No Iterations 2
GAMG:  Solving for p, Initial residual = 0.0443284, Final residual = 0.00211559, No Iterations 2
time step continuity errors : sum local = 2.70165e-05, global = -5.81408e-07, cumulative = 2.48498e-06
smoothSolver:  Solving for epsilon, Initial residual = 0.000344516, Final residual = 2.2717e-05, No Iterations 2
smoothSolver:  Solving for k, Initial residual = 0.00148515, Final residual = 0.000117507, No Iterations 2
ExecutionTime = 1.99745 s  ClockTime = 3 s

Time = 102s

smoothSolver:  Solving for Ux, Initial residual = 0.00100558, Final residual = 8.04881e-05, No Iterations 2
smoothSolver:  Solving for Uy, Initial residual = 0.00465015, Final residual = 0.000259118, No Iterations 2
GAMG:  Solving for p, Initial residual = 0.042204, Final residual = 0.000834085, No Iterations 3
time step continuity errors : sum local = 1.09233e-05, global = -4.7361e-07, cumulative = 2.01137e-06
smoothSolver:  Solving for epsilon, Initial residual = 0.000339549, Final residual = 2.24613e-05, No Iterations 2
smoothSolver:  Solving for k, Initial residual = 0.00146607, Final residual = 0.000116385, No Iterations 2
ExecutionTime = 2.01601 s  ClockTime = 3 s

Time = 103s

smoothSolver:  Solving for Ux, Initial residual = 0.000987585, Final residual = 7.75828e-05, No Iterations 2
smoothSolver:  Solving for Uy, Initial residual = 0.0046198, Final residual = 0.000259578, No Iterations 2
GAMG:  Solving for p, Initial residual = 0.0423768, Final residual = 0.000847253, No Iterations 3
time step continuity errors : sum local = 1.10186e-05, global = -1.12215e-07, cumulative = 1.89915e-06
smoothSolver:  Solving for epsilon, Initial residual = 0.000332797, Final residual = 2.1956e-05, No Iterations 2
smoothSolver:  Solving for k, Initial residual = 0.00143703, Final residual = 0.000116265, No Iterations 2
ExecutionTime = 2.03468 s  ClockTime = 3 s

Time = 104s

smoothSolver:  Solving for Ux, Initial residual = 0.000972089, Final residual = 7.63541e-05, No Iterations 2
smoothSolver:  Solving for Uy, Initial residual = 0.00463123, Final residual = 0.000258159, No Iterations 2
GAMG:  Solving for p, Initial residual = 0.0416169, Final residual = 0.00186252, No Iterations 2
time step continuity errors : sum local = 2.3977e-05, global = -4.80268e-07, cumulative = 1.41888e-06
smoothSolver:  Solving for epsilon, Initial residual = 0.000327165, Final residual = 2.14997e-05, No Iterations 2
smoothSolver:  Solving for k, Initial residual = 0.00141674, Final residual = 0.000112954, No Iterations 2
ExecutionTime = 2.0539 s  ClockTime = 3 s

Time = 105s

smoothSolver:  Solving for Ux, Initial residual = 0.000960268, Final residual = 7.55303e-05, No Iterations 2
smoothSolver:  Solving for Uy, Initial residual = 0.00455325, Final residual = 0.000257606, No Iterations 2
GAMG:  Solving for p, Initial residual = 0.0403797, Final residual = 0.00197632, No Iterations 2
time step continuity errors : sum local = 2.63278e-05, global = -3.01889e-07, cumulative = 1.117e-06
smoothSolver:  Solving for epsilon, Initial residual = 0.000321379, Final residual = 2.1088e-05, No Iterations 2
smoothSolver:  Solving for k, Initial residual = 0.00139481, Final residual = 0.000111273, No Iterations 2
ExecutionTime = 2.07347 s  ClockTime = 3 s

Time = 106s

smoothSolver:  Solving for Ux, Initial residual = 0.000943649, Final residual = 7.38897e-05, No Iterations 2
smoothSolver:  Solving for Uy, Initial residual = 0.00452124, Final residual = 0.000250057, No Iterations 2
GAMG:  Solving for p, Initial residual = 0.0399322, Final residual = 0.00100862, No Iterations 3
time step continuity errors : sum local = 1.33421e-05, global = -2.97855e-07, cumulative = 8.19141e-07
smoothSolver:  Solving for epsilon, Initial residual = 0.000316277, Final residual = 2.06666e-05, No Iterations 2
smoothSolver:  Solving for k, Initial residual = 0.00137214, Final residual = 0.000110021, No Iterations 2
ExecutionTime = 2.09322 s  ClockTime = 3 s

Time = 107s

smoothSolver:  Solving for Ux, Initial residual = 0.000935364, Final residual = 7.3257e-05, No Iterations 2
smoothSolver:  Solving for Uy, Initial residual = 0.00443391, Final residual = 0.000251839, No Iterations 2
GAMG:  Solving for p, Initial residual = 0.0390162, Final residual = 0.00194678, No Iterations 2
time step continuity errors : sum local = 2.54977e-05, global = -6.95352e-07, cumulative = 1.23789e-07
smoothSolver:  Solving for epsilon, Initial residual = 0.000311661, Final residual = 2.01631e-05, No Iterations 2
smoothSolver:  Solving for k, Initial residual = 0.00135164, Final residual = 0.000107477, No Iterations 2
ExecutionTime = 2.11257 s  ClockTime = 3 s

Time = 108s

smoothSolver:  Solving for Ux, Initial residual = 0.000922226, Final residual = 7.23459e-05, No Iterations 2
smoothSolver:  Solving for Uy, Initial residual = 0.00439737, Final residual = 0.000246829, No Iterations 2
GAMG:  Solving for p, Initial residual = 0.0387999, Final residual = 0.000887276, No Iterations 3
time step continuity errors : sum local = 1.18323e-05, global = -3.75613e-07, cumulative = -2.51824e-07
smoothSolver:  Solving for epsilon, Initial residual = 0.000306636, Final residual = 1.98156e-05, No Iterations 2
smoothSolver:  Solving for k, Initial residual = 0.00132747, Final residual = 0.000107401, No Iterations 2
ExecutionTime = 2.13414 s  ClockTime = 3 s

Time = 109s

smoothSolver:  Solving for Ux, Initial residual = 0.000911145, Final residual = 7.18376e-05, No Iterations 2
smoothSolver:  Solving for Uy, Initial residual = 0.00434839, Final residual = 0.000245914, No Iterations 2
GAMG:  Solving for p, Initial residual = 0.0389686, Final residual = 0.000799839, No Iterations 3
time step continuity errors : sum local = 1.0487e-05, global = -3.76558e-07, cumulative = -6.28382e-07
smoothSolver:  Solving for epsilon, Initial residual = 0.000302423, Final residual = 1.96368e-05, No Iterations 2
smoothSolver:  Solving for k, Initial residual = 0.00131031, Final residual = 0.000105157, No Iterations 2
ExecutionTime = 2.15501 s  ClockTime = 3 s

Time = 110s

smoothSolver:  Solving for Ux, Initial residual = 0.000900689, Final residual = 7.11531e-05, No Iterations 2
smoothSolver:  Solving for Uy, Initial residual = 0.0043952, Final residual = 0.000245258, No Iterations 2
GAMG:  Solving for p, Initial residual = 0.0360716, Final residual = 0.000710522, No Iterations 3
time step continuity errors : sum local = 9.82886e-06, global = -4.18777e-07, cumulative = -1.04716e-06
smoothSolver:  Solving for epsilon, Initial residual = 0.000297551, Final residual = 1.9324e-05, No Iterations 2
smoothSolver:  Solving for k, Initial residual = 0.00128872, Final residual = 0.000103054, No Iterations 2
ExecutionTime = 2.17763 s  ClockTime = 3 s

Time = 111s

smoothSolver:  Solving for Ux, Initial residual = 0.000890099, Final residual = 7.03837e-05, No Iterations 2
smoothSolver:  Solving for Uy, Initial residual = 0.00435182, Final residual = 0.000243404, No Iterations 2
GAMG:  Solving for p, Initial residual = 0.0360846, Final residual = 0.00169995, No Iterations 2
time step continuity errors : sum local = 2.3054e-05, global = 1.83485e-08, cumulative = -1.02881e-06
smoothSolver:  Solving for epsilon, Initial residual = 0.000293183, Final residual = 1.88545e-05, No Iterations 2
smoothSolver:  Solving for k, Initial residual = 0.00126934, Final residual = 0.000100584, No Iterations 2
ExecutionTime = 2.19671 s  ClockTime = 3 s

Time = 112s

smoothSolver:  Solving for Ux, Initial residual = 0.000876509, Final residual = 6.88925e-05, No Iterations 2
smoothSolver:  Solving for Uy, Initial residual = 0.00435108, Final residual = 0.000240755, No Iterations 2
GAMG:  Solving for p, Initial residual = 0.0357108, Final residual = 0.00177861, No Iterations 2
time step continuity errors : sum local = 2.39184e-05, global = -3.42093e-07, cumulative = -1.3709e-06
smoothSolver:  Solving for epsilon, Initial residual = 0.000288361, Final residual = 1.87351e-05, No Iterations 2
smoothSolver:  Solving for k, Initial residual = 0.00125096, Final residual = 0.000100379, No Iterations 2
ExecutionTime = 2.21575 s  ClockTime = 3 s

Time = 113s

smoothSolver:  Solving for Ux, Initial residual = 0.000863527, Final residual = 6.7954e-05, No Iterations 2
smoothSolver:  Solving for Uy, Initial residual = 0.00423141, Final residual = 0.000236984, No Iterations 2
GAMG:  Solving for p, Initial residual = 0.0347292, Final residual = 0.000750254, No Iterations 3
time step continuity errors : sum local = 1.02669e-05, global = -2.94219e-07, cumulative = -1.66512e-06
smoothSolver:  Solving for epsilon, Initial residual = 0.000284236, Final residual = 1.81035e-05, No Iterations 2
smoothSolver:  Solving for k, Initial residual = 0.00123001, Final residual = 0.000100107, No Iterations 2
ExecutionTime = 2.23507 s  ClockTime = 3 s

Time = 114s

smoothSolver:  Solving for Ux, Initial residual = 0.000849913, Final residual = 6.60858e-05, No Iterations 2
[...]
time step continuity errors : sum local = 2.02359e-06, global = -2.12486e-09, cumulative = -1.7555e-05
smoothSolver:  Solving for epsilon, Initial residual = 7.81499e-07, Final residual = 7.81499e-07, No Iterations 0
smoothSolver:  Solving for k, Initial residual = 9.40263e-07, Final residual = 9.40263e-07, No Iterations 0
ExecutionTime = 15.8193 s  ClockTime = 23 s

Time = 973s

smoothSolver:  Solving for Ux, Initial residual = 8.85735e-06, Final residual = 8.85735e-06, No Iterations 0
smoothSolver:  Solving for Uy, Initial residual = 0.000282182, Final residual = 7.47093e-06, No Iterations 2
GAMG:  Solving for p, Initial residual = 0.00305805, Final residual = 0.000124012, No Iterations 1
time step continuity errors : sum local = 2.06656e-06, global = -1.36792e-09, cumulative = -1.75563e-05
smoothSolver:  Solving for epsilon, Initial residual = 7.8174e-07, Final residual = 7.8174e-07, No Iterations 0
smoothSolver:  Solving for k, Initial residual = 9.57655e-07, Final residual = 9.57655e-07, No Iterations 0
ExecutionTime = 15.8354 s  ClockTime = 23 s

Time = 974s

smoothSolver:  Solving for Ux, Initial residual = 8.79691e-06, Final residual = 8.79691e-06, No Iterations 0
smoothSolver:  Solving for Uy, Initial residual = 0.000280297, Final residual = 7.52271e-06, No Iterations 2
GAMG:  Solving for p, Initial residual = 0.00312095, Final residual = 0.000120712, No Iterations 1
time step continuity errors : sum local = 2.01166e-06, global = -1.43949e-09, cumulative = -1.75578e-05
smoothSolver:  Solving for epsilon, Initial residual = 7.85071e-07, Final residual = 7.85071e-07, No Iterations 0
smoothSolver:  Solving for k, Initial residual = 9.44925e-07, Final residual = 9.44925e-07, No Iterations 0
ExecutionTime = 15.8489 s  ClockTime = 23 s

Time = 975s

smoothSolver:  Solving for Ux, Initial residual = 8.90482e-06, Final residual = 8.90482e-06, No Iterations 0
smoothSolver:  Solving for Uy, Initial residual = 0.000282179, Final residual = 7.49847e-06, No Iterations 2
GAMG:  Solving for p, Initial residual = 0.00312374, Final residual = 0.000122931, No Iterations 1
time step continuity errors : sum local = 2.04899e-06, global = -2.22716e-09, cumulative = -1.756e-05
smoothSolver:  Solving for epsilon, Initial residual = 7.85244e-07, Final residual = 7.85244e-07, No Iterations 0
smoothSolver:  Solving for k, Initial residual = 9.5347e-07, Final residual = 9.5347e-07, No Iterations 0
ExecutionTime = 15.8622 s  ClockTime = 23 s

Time = 976s

smoothSolver:  Solving for Ux, Initial residual = 8.99191e-06, Final residual = 8.99191e-06, No Iterations 0
smoothSolver:  Solving for Uy, Initial residual = 0.000282717, Final residual = 7.6548e-06, No Iterations 2
GAMG:  Solving for p, Initial residual = 0.00316911, Final residual = 0.00012357, No Iterations 1
time step continuity errors : sum local = 2.05983e-06, global = -3.71313e-09, cumulative = -1.75637e-05
smoothSolver:  Solving for epsilon, Initial residual = 7.88321e-07, Final residual = 7.88321e-07, No Iterations 0
smoothSolver:  Solving for k, Initial residual = 9.33772e-07, Final residual = 9.33772e-07, No Iterations 0
ExecutionTime = 15.877 s  ClockTime = 23 s

Time = 977s

smoothSolver:  Solving for Ux, Initial residual = 8.91484e-06, Final residual = 8.91484e-06, No Iterations 0
smoothSolver:  Solving for Uy, Initial residual = 0.000283688, Final residual = 7.56775e-06, No Iterations 2
GAMG:  Solving for p, Initial residual = 0.00314919, Final residual = 0.000124286, No Iterations 1
time step continuity errors : sum local = 2.07184e-06, global = -5.60912e-09, cumulative = -1.75693e-05
smoothSolver:  Solving for epsilon, Initial residual = 7.88288e-07, Final residual = 7.88288e-07, No Iterations 0
smoothSolver:  Solving for k, Initial residual = 9.39413e-07, Final residual = 9.39413e-07, No Iterations 0
ExecutionTime = 15.8902 s  ClockTime = 23 s

Time = 978s

smoothSolver:  Solving for Ux, Initial residual = 9.02188e-06, Final residual = 9.02188e-06, No Iterations 0
smoothSolver:  Solving for Uy, Initial residual = 0.000280861, Final residual = 7.71936e-06, No Iterations 2
GAMG:  Solving for p, Initial residual = 0.0031574, Final residual = 0.000125592, No Iterations 1
time step continuity errors : sum local = 2.09364e-06, global = -7.0007e-09, cumulative = -1.75763e-05
smoothSolver:  Solving for epsilon, Initial residual = 7.91504e-07, Final residual = 7.91504e-07, No Iterations 0
smoothSolver:  Solving for k, Initial residual = 9.25704e-07, Final residual = 9.25704e-07, No Iterations 0
ExecutionTime = 15.9024 s  ClockTime = 23 s

Time = 979s

smoothSolver:  Solving for Ux, Initial residual = 9.03728e-06, Final residual = 9.03728e-06, No Iterations 0
smoothSolver:  Solving for Uy, Initial residual = 0.000284436, Final residual = 7.62423e-06, No Iterations 2
GAMG:  Solving for p, Initial residual = 0.00321523, Final residual = 0.000124337, No Iterations 1
time step continuity errors : sum local = 2.07279e-06, global = -7.16597e-09, cumulative = -1.75835e-05
smoothSolver:  Solving for epsilon, Initial residual = 7.92188e-07, Final residual = 7.92188e-07, No Iterations 0
smoothSolver:  Solving for k, Initial residual = 9.45023e-07, Final residual = 9.45023e-07, No Iterations 0
ExecutionTime = 15.9154 s  ClockTime = 23 s

Time = 980s

smoothSolver:  Solving for Ux, Initial residual = 9.19001e-06, Final residual = 9.19001e-06, No Iterations 0
smoothSolver:  Solving for Uy, Initial residual = 0.000285039, Final residual = 7.78955e-06, No Iterations 2
GAMG:  Solving for p, Initial residual = 0.00322615, Final residual = 0.000126459, No Iterations 1
time step continuity errors : sum local = 2.10813e-06, global = -5.99165e-09, cumulative = -1.75895e-05
smoothSolver:  Solving for epsilon, Initial residual = 7.95766e-07, Final residual = 7.95766e-07, No Iterations 0
smoothSolver:  Solving for k, Initial residual = 9.43024e-07, Final residual = 9.43024e-07, No Iterations 0
ExecutionTime = 15.9279 s  ClockTime = 23 s

Time = 981s

smoothSolver:  Solving for Ux, Initial residual = 9.14699e-06, Final residual = 9.14699e-06, No Iterations 0
smoothSolver:  Solving for Uy, Initial residual = 0.000286878, Final residual = 7.73137e-06, No Iterations 2
GAMG:  Solving for p, Initial residual = 0.00323729, Final residual = 0.000124605, No Iterations 1
time step continuity errors : sum local = 2.07708e-06, global = -3.75904e-09, cumulative = -1.75932e-05
smoothSolver:  Solving for epsilon, Initial residual = 7.96378e-07, Final residual = 7.96378e-07, No Iterations 0
smoothSolver:  Solving for k, Initial residual = 9.64325e-07, Final residual = 9.64325e-07, No Iterations 0
ExecutionTime = 15.9413 s  ClockTime = 23 s

Time = 982s

smoothSolver:  Solving for Ux, Initial residual = 9.17707e-06, Final residual = 9.17707e-06, No Iterations 0
smoothSolver:  Solving for Uy, Initial residual = 0.000284145, Final residual = 7.82059e-06, No Iterations 2
GAMG:  Solving for p, Initial residual = 0.00324392, Final residual = 0.000128072, No Iterations 1
time step continuity errors : sum local = 2.13473e-06, global = -1.56412e-09, cumulative = -1.75948e-05
smoothSolver:  Solving for epsilon, Initial residual = 7.9984e-07, Final residual = 7.9984e-07, No Iterations 0
smoothSolver:  Solving for k, Initial residual = 9.58497e-07, Final residual = 9.58497e-07, No Iterations 0
ExecutionTime = 15.9545 s  ClockTime = 23 s

Time = 983s

smoothSolver:  Solving for Ux, Initial residual = 9.32033e-06, Final residual = 9.32033e-06, No Iterations 0
smoothSolver:  Solving for Uy, Initial residual = 0.000286725, Final residual = 7.83673e-06, No Iterations 2
GAMG:  Solving for p, Initial residual = 0.00328128, Final residual = 0.000128216, No Iterations 1
time step continuity errors : sum local = 2.13713e-06, global = -2.27814e-10, cumulative = -1.7595e-05
smoothSolver:  Solving for epsilon, Initial residual = 8.00363e-07, Final residual = 8.00363e-07, No Iterations 0
smoothSolver:  Solving for k, Initial residual = 9.71019e-07, Final residual = 9.71019e-07, No Iterations 0
ExecutionTime = 15.9667 s  ClockTime = 23 s

Time = 984s

smoothSolver:  Solving for Ux, Initial residual = 9.30364e-06, Final residual = 9.30364e-06, No Iterations 0
smoothSolver:  Solving for Uy, Initial residual = 0.000289122, Final residual = 7.92624e-06, No Iterations 2
GAMG:  Solving for p, Initial residual = 0.00333271, Final residual = 0.000128232, No Iterations 1
time step continuity errors : sum local = 2.13771e-06, global = 1.64335e-10, cumulative = -1.75949e-05
smoothSolver:  Solving for epsilon, Initial residual = 8.034e-07, Final residual = 8.034e-07, No Iterations 0
smoothSolver:  Solving for k, Initial residual = 9.56216e-07, Final residual = 9.56216e-07, No Iterations 0
ExecutionTime = 15.9793 s  ClockTime = 23 s

Time = 985s

smoothSolver:  Solving for Ux, Initial residual = 9.41507e-06, Final residual = 9.41507e-06, No Iterations 0
smoothSolver:  Solving for Uy, Initial residual = 0.000289906, Final residual = 7.95777e-06, No Iterations 2
GAMG:  Solving for p, Initial residual = 0.00328687, Final residual = 0.000126866, No Iterations 1
time step continuity errors : sum local = 2.11525e-06, global = -1.00638e-10, cumulative = -1.7595e-05
smoothSolver:  Solving for epsilon, Initial residual = 8.03523e-07, Final residual = 8.03523e-07, No Iterations 0
smoothSolver:  Solving for k, Initial residual = 9.6175e-07, Final residual = 9.6175e-07, No Iterations 0
ExecutionTime = 15.9918 s  ClockTime = 23 s

Time = 986s

smoothSolver:  Solving for Ux, Initial residual = 9.31938e-06, Final residual = 9.31938e-06, No Iterations 0
smoothSolver:  Solving for Uy, Initial residual = 0.000288689, Final residual = 7.99066e-06, No Iterations 2
GAMG:  Solving for p, Initial residual = 0.0033419, Final residual = 0.000127576, No Iterations 1
time step continuity errors : sum local = 2.12727e-06, global = -9.74383e-10, cumulative = -1.75959e-05
smoothSolver:  Solving for epsilon, Initial residual = 8.06315e-07, Final residual = 8.06315e-07, No Iterations 0
smoothSolver:  Solving for k, Initial residual = 9.43185e-07, Final residual = 9.43185e-07, No Iterations 0
ExecutionTime = 16.0045 s  ClockTime = 23 s

Time = 987s

smoothSolver:  Solving for Ux, Initial residual = 9.54507e-06, Final residual = 9.54507e-06, No Iterations 0
smoothSolver:  Solving for Uy, Initial residual = 0.000290435, Final residual = 8.01613e-06, No Iterations 2
GAMG:  Solving for p, Initial residual = 0.00332959, Final residual = 0.000131312, No Iterations 1
time step continuity errors : sum local = 2.18955e-06, global = -1.76824e-09, cumulative = -1.75977e-05
smoothSolver:  Solving for epsilon, Initial residual = 8.06508e-07, Final residual = 8.06508e-07, No Iterations 0
smoothSolver:  Solving for k, Initial residual = 9.48752e-07, Final residual = 9.48752e-07, No Iterations 0
ExecutionTime = 16.0172 s  ClockTime = 23 s

Time = 988s

smoothSolver:  Solving for Ux, Initial residual = 9.56354e-06, Final residual = 9.56354e-06, No Iterations 0
smoothSolver:  Solving for Uy, Initial residual = 0.000292682, Final residual = 8.10861e-06, No Iterations 2
GAMG:  Solving for p, Initial residual = 0.00341589, Final residual = 0.000130849, No Iterations 1
time step continuity errors : sum local = 2.18194e-06, global = -1.4042e-09, cumulative = -1.75991e-05
smoothSolver:  Solving for epsilon, Initial residual = 8.0953e-07, Final residual = 8.0953e-07, No Iterations 0
smoothSolver:  Solving for k, Initial residual = 9.42708e-07, Final residual = 9.42708e-07, No Iterations 0
ExecutionTime = 16.0293 s  ClockTime = 23 s

Time = 989s

smoothSolver:  Solving for Ux, Initial residual = 9.59625e-06, Final residual = 9.59625e-06, No Iterations 0
smoothSolver:  Solving for Uy, Initial residual = 0.00029385, Final residual = 8.09439e-06, No Iterations 2
GAMG:  Solving for p, Initial residual = 0.00338052, Final residual = 0.000128876, No Iterations 1
time step continuity errors : sum local = 2.14903e-06, global = 9.54964e-12, cumulative = -1.75991e-05
smoothSolver:  Solving for epsilon, Initial residual = 8.10065e-07, Final residual = 8.10065e-07, No Iterations 0
smoothSolver:  Solving for k, Initial residual = 9.64392e-07, Final residual = 9.64392e-07, No Iterations 0
ExecutionTime = 16.0415 s  ClockTime = 23 s

Time = 990s

smoothSolver:  Solving for Ux, Initial residual = 9.6116e-06, Final residual = 9.6116e-06, No Iterations 0
smoothSolver:  Solving for Uy, Initial residual = 0.000291766, Final residual = 8.22211e-06, No Iterations 2
GAMG:  Solving for p, Initial residual = 0.00342046, Final residual = 0.000129316, No Iterations 1
time step continuity errors : sum local = 2.15615e-06, global = 2.56126e-09, cumulative = -1.75966e-05
smoothSolver:  Solving for epsilon, Initial residual = 8.13227e-07, Final residual = 8.13227e-07, No Iterations 0
smoothSolver:  Solving for k, Initial residual = 9.6459e-07, Final residual = 9.6459e-07, No Iterations 0
ExecutionTime = 16.0538 s  ClockTime = 23 s

Time = 991s

smoothSolver:  Solving for Ux, Initial residual = 9.6647e-06, Final residual = 9.6647e-06, No Iterations 0
smoothSolver:  Solving for Uy, Initial residual = 0.000295245, Final residual = 8.16341e-06, No Iterations 2
GAMG:  Solving for p, Initial residual = 0.00344184, Final residual = 0.000132544, No Iterations 1
time step continuity errors : sum local = 2.20988e-06, global = 5.24354e-09, cumulative = -1.75913e-05
smoothSolver:  Solving for epsilon, Initial residual = 8.1383e-07, Final residual = 8.1383e-07, No Iterations 0
smoothSolver:  Solving for k, Initial residual = 9.81762e-07, Final residual = 9.81762e-07, No Iterations 0
ExecutionTime = 16.0653 s  ClockTime = 23 s

Time = 992s

smoothSolver:  Solving for Ux, Initial residual = 9.86903e-06, Final residual = 9.86903e-06, No Iterations 0
smoothSolver:  Solving for Uy, Initial residual = 0.000296201, Final residual = 8.36006e-06, No Iterations 2
GAMG:  Solving for p, Initial residual = 0.00346496, Final residual = 0.000135586, No Iterations 1
time step continuity errors : sum local = 2.26058e-06, global = 7.06908e-09, cumulative = -1.75842e-05
smoothSolver:  Solving for epsilon, Initial residual = 8.16598e-07, Final residual = 8.16598e-07, No Iterations 0
smoothSolver:  Solving for k, Initial residual = 9.73603e-07, Final residual = 9.73603e-07, No Iterations 0
ExecutionTime = 16.0775 s  ClockTime = 23 s

Time = 993s

smoothSolver:  Solving for Ux, Initial residual = 9.77545e-06, Final residual = 9.77545e-06, No Iterations 0
smoothSolver:  Solving for Uy, Initial residual = 0.000298967, Final residual = 8.28823e-06, No Iterations 2
GAMG:  Solving for p, Initial residual = 0.00349467, Final residual = 0.00013185, No Iterations 1
time step continuity errors : sum local = 2.19844e-06, global = 7.67023e-09, cumulative = -1.75766e-05
smoothSolver:  Solving for epsilon, Initial residual = 8.16749e-07, Final residual = 8.16749e-07, No Iterations 0
smoothSolver:  Solving for k, Initial residual = 9.82367e-07, Final residual = 9.82367e-07, No Iterations 0
ExecutionTime = 16.0903 s  ClockTime = 23 s

Time = 994s

smoothSolver:  Solving for Ux, Initial residual = 9.87786e-06, Final residual = 9.87786e-06, No Iterations 0
smoothSolver:  Solving for Uy, Initial residual = 0.000296523, Final residual = 8.43907e-06, No Iterations 2
GAMG:  Solving for p, Initial residual = 0.0034847, Final residual = 0.00013195, No Iterations 1
time step continuity errors : sum local = 2.20047e-06, global = 6.9578e-09, cumulative = -1.75696e-05
smoothSolver:  Solving for epsilon, Initial residual = 8.19289e-07, Final residual = 8.19289e-07, No Iterations 0
smoothSolver:  Solving for k, Initial residual = 9.67115e-07, Final residual = 9.67115e-07, No Iterations 0
ExecutionTime = 16.1028 s  ClockTime = 23 s

Time = 995s

smoothSolver:  Solving for Ux, Initial residual = 9.93624e-06, Final residual = 9.93624e-06, No Iterations 0
smoothSolver:  Solving for Uy, Initial residual = 0.000300105, Final residual = 8.39553e-06, No Iterations 2
GAMG:  Solving for p, Initial residual = 0.00354813, Final residual = 0.000134169, No Iterations 1
time step continuity errors : sum local = 2.23778e-06, global = 5.21249e-09, cumulative = -1.75644e-05
smoothSolver:  Solving for epsilon, Initial residual = 8.19409e-07, Final residual = 8.19409e-07, No Iterations 0
smoothSolver:  Solving for k, Initial residual = 9.68801e-07, Final residual = 9.68801e-07, No Iterations 0
ExecutionTime = 16.1156 s  ClockTime = 23 s

Time = 996s

smoothSolver:  Solving for Ux, Initial residual = 1.00709e-05, Final residual = 2.10961e-06, No Iterations 1
smoothSolver:  Solving for Uy, Initial residual = 0.000301333, Final residual = 8.52342e-06, No Iterations 2
GAMG:  Solving for p, Initial residual = 0.00254367, Final residual = 0.000104113, No Iterations 1
time step continuity errors : sum local = 1.73414e-06, global = 3.36166e-09, cumulative = -1.7561e-05
smoothSolver:  Solving for epsilon, Initial residual = 8.22726e-07, Final residual = 8.22726e-07, No Iterations 0
smoothSolver:  Solving for k, Initial residual = 9.55472e-07, Final residual = 9.55472e-07, No Iterations 0
ExecutionTime = 16.1288 s  ClockTime = 23 s

Time = 997s

smoothSolver:  Solving for Ux, Initial residual = 6.68789e-06, Final residual = 6.68789e-06, No Iterations 0
smoothSolver:  Solving for Uy, Initial residual = 0.00025388, Final residual = 7.45749e-06, No Iterations 2
GAMG:  Solving for p, Initial residual = 0.00266735, Final residual = 0.000103233, No Iterations 1
time step continuity errors : sum local = 1.71901e-06, global = 2.48506e-09, cumulative = -1.75586e-05
smoothSolver:  Solving for epsilon, Initial residual = 8.2327e-07, Final residual = 8.2327e-07, No Iterations 0
smoothSolver:  Solving for k, Initial residual = 9.64318e-07, Final residual = 9.64318e-07, No Iterations 0
ExecutionTime = 16.1423 s  ClockTime = 23 s

Time = 998s

smoothSolver:  Solving for Ux, Initial residual = 6.90159e-06, Final residual = 6.90159e-06, No Iterations 0
smoothSolver:  Solving for Uy, Initial residual = 0.000236705, Final residual = 7.32489e-06, No Iterations 2
GAMG:  Solving for p, Initial residual = 0.00264525, Final residual = 0.000104768, No Iterations 1
time step continuity errors : sum local = 1.74449e-06, global = 2.63929e-09, cumulative = -1.75559e-05
smoothSolver:  Solving for epsilon, Initial residual = 8.25947e-07, Final residual = 8.25947e-07, No Iterations 0
smoothSolver:  Solving for k, Initial residual = 9.64507e-07, Final residual = 9.64507e-07, No Iterations 0
ExecutionTime = 16.1544 s  ClockTime = 23 s

Time = 999s

smoothSolver:  Solving for Ux, Initial residual = 7.05256e-06, Final residual = 7.05256e-06, No Iterations 0
smoothSolver:  Solving for Uy, Initial residual = 0.000265738, Final residual = 7.1391e-06, No Iterations 2
GAMG:  Solving for p, Initial residual = 0.00246099, Final residual = 0.000105956, No Iterations 1
time step continuity errors : sum local = 1.76429e-06, global = 3.47276e-09, cumulative = -1.75524e-05
smoothSolver:  Solving for epsilon, Initial residual = 8.26898e-07, Final residual = 8.26898e-07, No Iterations 0
smoothSolver:  Solving for k, Initial residual = 9.82094e-07, Final residual = 9.82094e-07, No Iterations 0
ExecutionTime = 16.1678 s  ClockTime = 23 s

Time = 1000s

smoothSolver:  Solving for Ux, Initial residual = 6.87354e-06, Final residual = 6.87354e-06, No Iterations 0
smoothSolver:  Solving for Uy, Initial residual = 0.000247945, Final residual = 6.63999e-06, No Iterations 2
GAMG:  Solving for p, Initial residual = 0.00231578, Final residual = 9.55843e-05, No Iterations 1
time step continuity errors : sum local = 1.59172e-06, global = 4.23275e-09, cumulative = -1.75482e-05
smoothSolver:  Solving for epsilon, Initial residual = 8.29631e-07, Final residual = 8.29631e-07, No Iterations 0
smoothSolver:  Solving for k, Initial residual = 9.78109e-07, Final residual = 9.78109e-07, No Iterations 0
ExecutionTime = 16.2362 s  ClockTime = 23 s

End

